pglib_opf_case7336_epigrids.m
%%%%%%%%%%%%%%%%%%%%%%%%%%%%%%%%%%%%%%%%%%%%%%%%%%%%%%%%%%%%%%%%%%%%%%%%%%%
%%%%                                                                  %%%%%
%%%%    IEEE PES Power Grid Library - Optimal Power Flow - v23.07     %%%%%
%%%%          (https://github.com/power-grid-lib/pglib-opf)           %%%%%
%%%%               Benchmark Group - Typical Operations               %%%%%
%%%%                         23 - July - 2023                         %%%%%
%%%%                                                                  %%%%%
%%%%%%%%%%%%%%%%%%%%%%%%%%%%%%%%%%%%%%%%%%%%%%%%%%%%%%%%%%%%%%%%%%%%%%%%%%%
%
%   This is a synthetic power system network model that covers the geographic
%   footprint of the state of Texas. The case is designed with a 345, 230, 138
%   and 69 kV transmission network to serve a load that roughly mimics the
%   actual population of its geographic footprint. The synthetic transmission
%   system was designed by algorithms described in [1] to be statistically
%   similar to actual transmission system models but without modeling any
%   actual lines.
%
%   One-line diagrams and other data formats available at:
%   https://github.com/WISPO-POP/SyntheticElectricNetworkModels
%   https://electricgrids.engr.tamu.edu
%
%   This synthetic dateset was developed as part of the ARPA-E GRID DATA
%   program as part of the EPIGRIDS project.
%
%   When publishing results based on this data, please cite:
%
%   [1] J. M. Snodgrass, "Tractable Algorithms for Constructing Electric Power Network Models,"
%      Ph.D. Thesis, The University of Wisconsin - Madison, 2021.
%
%   Copyright (c) 2022 by J. Snodgrass, S. Greene, B. Lesieutre, C. DeMarco
%   Licensed under the Creative Commons Attribution 4.0
%   International license, http://creativecommons.org/licenses/by/4.0/
%
function mpc = pglib_opf_case7336_epigrids
mpc.version = '2';
mpc.baseMVA = 100.0;

%% bus data
%	bus_i	type	Pd	Qd	Gs	Bs	area	Vm	Va	baseKV	zone	Vmax	Vmin
mpc.bus = [
	50310	 2	 0.0	 0.0	 0.0	 0.0	 34	    1.00000	    0.00000	 345.0	 1	    1.10000	    0.90000;
	50311	 2	 0.0	 0.0	 0.0	 0.0	 34	    1.00000	    0.00000	 345.0	 1	    1.10000	    0.90000;
	50312	 2	 0.0	 0.0	 0.0	 0.0	 34	    1.00000	    0.00000	 345.0	 1	    1.10000	    0.90000;
	50313	 2	 0.0	 0.0	 0.0	 0.0	 34	    1.00000	    0.00000	 345.0	 1	    1.10000	    0.90000;
	50314	 2	 0.0	 0.0	 0.0	 0.0	 34	    1.00000	    0.00000	 345.0	 1	    1.10000	    0.90000;
	50315	 2	 0.0	 0.0	 0.0	 0.0	 34	    1.00000	    0.00000	 345.0	 1	    1.10000	    0.90000;
	50316	 2	 0.0	 0.0	 0.0	 0.0	 34	    1.00000	    0.00000	 230.0	 1	    1.10000	    0.90000;
	50317	 2	 0.0	 0.0	 0.0	 0.0	 34	    1.00000	    0.00000	 230.0	 1	    1.10000	    0.90000;
	50318	 2	 0.0	 0.0	 0.0	 0.0	 34	    1.00000	    0.00000	 345.0	 1	    1.10000	    0.90000;
	50319	 2	 0.0	 0.0	 0.0	 0.0	 34	    1.00000	    0.00000	 230.0	 1	    1.10000	    0.90000;
	50320	 3	 0.0	 0.0	 0.0	 0.0	 34	    1.00000	    0.00000	 345.0	 1	    1.10000	    0.90000;
	50321	 2	 0.0	 0.0	 0.0	 0.0	 34	    1.00000	    0.00000	 345.0	 1	    1.10000	    0.90000;
	50322	 2	 0.0	 0.0	 0.0	 0.0	 34	    1.00000	    0.00000	 345.0	 1	    1.10000	    0.90000;
	50323	 2	 0.0	 0.0	 0.0	 0.0	 34	    1.00000	    0.00000	 345.0	 1	    1.10000	    0.90000;
	50324	 2	 0.0	 0.0	 0.0	 0.0	 34	    1.00000	    0.00000	 345.0	 1	    1.10000	    0.90000;
	50325	 2	 0.0	 0.0	 0.0	 0.0	 34	    1.00000	    0.00000	 345.0	 1	    1.10000	    0.90000;
	50326	 2	 0.0	 0.0	 0.0	 0.0	 34	    1.00000	    0.00000	 345.0	 1	    1.10000	    0.90000;
	50327	 2	 0.0	 0.0	 0.0	 0.0	 34	    1.00000	    0.00000	 345.0	 1	    1.10000	    0.90000;
	50328	 2	 0.0	 0.0	 0.0	 0.0	 34	    1.00000	    0.00000	 345.0	 1	    1.10000	    0.90000;
	50329	 2	 0.0	 0.0	 0.0	 0.0	 34	    1.00000	    0.00000	 345.0	 1	    1.10000	    0.90000;
	50330	 2	 0.0	 0.0	 0.0	 0.0	 34	    1.00000	    0.00000	 345.0	 1	    1.10000	    0.90000;
	50331	 2	 0.0	 0.0	 0.0	 0.0	 34	    1.00000	    0.00000	 345.0	 1	    1.10000	    0.90000;
	50332	 2	 0.0	 0.0	 0.0	 0.0	 34	    1.00000	    0.00000	 230.0	 1	    1.10000	    0.90000;
	50333	 2	 0.0	 0.0	 0.0	 0.0	 34	    1.00000	    0.00000	 345.0	 1	    1.10000	    0.90000;
	50334	 2	 0.0	 0.0	 0.0	 0.0	 34	    1.00000	    0.00000	 230.0	 1	    1.10000	    0.90000;
	50335	 2	 0.0	 0.0	 0.0	 0.0	 34	    1.00000	    0.00000	 230.0	 1	    1.10000	    0.90000;
	50336	 2	 0.0	 0.0	 0.0	 0.0	 34	    1.00000	    0.00000	 345.0	 1	    1.10000	    0.90000;
	50337	 2	 0.0	 0.0	 0.0	 0.0	 34	    1.00000	    0.00000	 345.0	 1	    1.10000	    0.90000;
	50338	 2	 0.0	 0.0	 0.0	 0.0	 34	    1.00000	    0.00000	 138.0	 1	    1.10000	    0.90000;
	50339	 2	 0.0	 0.0	 0.0	 0.0	 34	    1.00000	    0.00000	 345.0	 1	    1.10000	    0.90000;
	50340	 2	 0.0	 0.0	 0.0	 0.0	 34	    1.00000	    0.00000	 345.0	 1	    1.10000	    0.90000;
	50341	 2	 0.0	 0.0	 0.0	 0.0	 34	    1.00000	    0.00000	 138.0	 1	    1.10000	    0.90000;
	50342	 2	 0.0	 0.0	 0.0	 0.0	 34	    1.00000	    0.00000	 345.0	 1	    1.10000	    0.90000;
	50343	 2	 0.0	 0.0	 0.0	 0.0	 34	    1.00000	    0.00000	 345.0	 1	    1.10000	    0.90000;
	50344	 2	 0.0	 0.0	 0.0	 0.0	 34	    1.00000	    0.00000	 345.0	 1	    1.10000	    0.90000;
	50345	 2	 0.0	 0.0	 0.0	 0.0	 34	    1.00000	    0.00000	 345.0	 1	    1.10000	    0.90000;
	50346	 2	 0.0	 0.0	 0.0	 0.0	 34	    1.00000	    0.00000	 345.0	 1	    1.10000	    0.90000;
	50347	 2	 0.0	 0.0	 0.0	 0.0	 34	    1.00000	    0.00000	 230.0	 1	    1.10000	    0.90000;
	50348	 2	 0.0	 0.0	 0.0	 0.0	 34	    1.00000	    0.00000	 345.0	 1	    1.10000	    0.90000;
	50349	 2	 0.0	 0.0	 0.0	 0.0	 34	    1.00000	    0.00000	 138.0	 1	    1.10000	    0.90000;
	50350	 2	 0.0	 0.0	 0.0	 0.0	 34	    1.00000	    0.00000	 345.0	 1	    1.10000	    0.90000;
	50351	 2	 0.0	 0.0	 0.0	 0.0	 34	    1.00000	    0.00000	 138.0	 1	    1.10000	    0.90000;
	50352	 1	 0.0	 0.0	 0.0	 0.0	 34	    1.00000	    0.00000	 345.0	 1	    1.10000	    0.90000;
	50353	 2	 0.0	 0.0	 0.0	 0.0	 34	    1.00000	    0.00000	 230.0	 1	    1.10000	    0.90000;
	50354	 2	 0.0	 0.0	 0.0	 0.0	 34	    1.00000	    0.00000	 345.0	 1	    1.10000	    0.90000;
	50355	 2	 0.0	 0.0	 0.0	 0.0	 34	    1.00000	    0.00000	 345.0	 1	    1.10000	    0.90000;
	50356	 2	 0.0	 0.0	 0.0	 0.0	 34	    1.00000	    0.00000	 230.0	 1	    1.10000	    0.90000;
	50357	 2	 0.0	 0.0	 0.0	 0.0	 34	    1.00000	    0.00000	 138.0	 1	    1.10000	    0.90000;
	50358	 2	 0.0	 0.0	 0.0	 0.0	 34	    1.00000	    0.00000	 138.0	 1	    1.10000	    0.90000;
	50359	 1	 0.0	 0.0	 0.0	 0.0	 34	    1.00000	    0.00000	 230.0	 1	    1.10000	    0.90000;
	50360	 2	 0.0	 0.0	 0.0	 0.0	 34	    1.00000	    0.00000	 138.0	 1	    1.10000	    0.90000;
	50361	 2	 0.0	 0.0	 0.0	 0.0	 34	    1.00000	    0.00000	 345.0	 1	    1.10000	    0.90000;
	50362	 2	 0.0	 0.0	 0.0	 0.0	 34	    1.00000	    0.00000	 345.0	 1	    1.10000	    0.90000;
	50363	 2	 0.0	 0.0	 0.0	 0.0	 34	    1.00000	    0.00000	 345.0	 1	    1.10000	    0.90000;
	50364	 2	 0.0	 0.0	 0.0	 0.0	 34	    1.00000	    0.00000	 345.0	 1	    1.10000	    0.90000;
	50365	 2	 0.0	 0.0	 0.0	 0.0	 34	    1.00000	    0.00000	 345.0	 1	    1.10000	    0.90000;
	50366	 2	 0.0	 0.0	 0.0	 0.0	 34	    1.00000	    0.00000	 345.0	 1	    1.10000	    0.90000;
	50367	 2	 0.0	 0.0	 0.0	 0.0	 34	    1.00000	    0.00000	 345.0	 1	    1.10000	    0.90000;
	50368	 2	 0.0	 0.0	 0.0	 0.0	 34	    1.00000	    0.00000	 230.0	 1	    1.10000	    0.90000;
	50369	 2	 0.0	 0.0	 0.0	 0.0	 34	    1.00000	    0.00000	 138.0	 1	    1.10000	    0.90000;
	50370	 2	 0.0	 0.0	 0.0	 0.0	 34	    1.00000	    0.00000	 138.0	 1	    1.10000	    0.90000;
	50371	 2	 0.0	 0.0	 0.0	 0.0	 34	    1.00000	    0.00000	 345.0	 1	    1.10000	    0.90000;
	50372	 2	 0.0	 0.0	 0.0	 0.0	 34	    1.00000	    0.00000	 345.0	 1	    1.10000	    0.90000;
	50373	 2	 0.0	 0.0	 0.0	 0.0	 34	    1.00000	    0.00000	 345.0	 1	    1.10000	    0.90000;
	50374	 2	 0.0	 0.0	 0.0	 0.0	 34	    1.00000	    0.00000	 345.0	 1	    1.10000	    0.90000;
	50375	 2	 0.0	 0.0	 0.0	 0.0	 34	    1.00000	    0.00000	 345.0	 1	    1.10000	    0.90000;
	50376	 2	 0.0	 0.0	 0.0	 0.0	 34	    1.00000	    0.00000	 345.0	 1	    1.10000	    0.90000;
	50377	 2	 0.0	 0.0	 0.0	 0.0	 34	    1.00000	    0.00000	 345.0	 1	    1.10000	    0.90000;
	50378	 2	 0.0	 0.0	 0.0	 0.0	 34	    1.00000	    0.00000	 345.0	 1	    1.10000	    0.90000;
	50379	 2	 0.0	 0.0	 0.0	 0.0	 34	    1.00000	    0.00000	 345.0	 1	    1.10000	    0.90000;
	50380	 2	 0.0	 0.0	 0.0	 0.0	 34	    1.00000	    0.00000	 345.0	 1	    1.10000	    0.90000;
	50381	 2	 0.0	 0.0	 0.0	 0.0	 34	    1.00000	    0.00000	 345.0	 1	    1.10000	    0.90000;
	50382	 2	 0.0	 0.0	 0.0	 0.0	 34	    1.00000	    0.00000	 230.0	 1	    1.10000	    0.90000;
	50383	 1	 0.0	 0.0	 0.0	 0.0	 34	    1.00000	    0.00000	 345.0	 1	    1.10000	    0.90000;
	50384	 2	 0.0	 0.0	 0.0	 0.0	 34	    1.00000	    0.00000	 138.0	 1	    1.10000	    0.90000;
	50385	 2	 0.0	 0.0	 0.0	 0.0	 34	    1.00000	    0.00000	 345.0	 1	    1.10000	    0.90000;
	50386	 2	 0.0	 0.0	 0.0	 0.0	 34	    1.00000	    0.00000	 345.0	 1	    1.10000	    0.90000;
	50387	 2	 0.0	 0.0	 0.0	 0.0	 34	    1.00000	    0.00000	 345.0	 1	    1.10000	    0.90000;
	50388	 2	 0.0	 0.0	 0.0	 0.0	 34	    1.00000	    0.00000	 230.0	 1	    1.10000	    0.90000;
	50389	 2	 0.0	 0.0	 0.0	 0.0	 34	    1.00000	    0.00000	 345.0	 1	    1.10000	    0.90000;
	50390	 2	 0.0	 0.0	 0.0	 0.0	 34	    1.00000	    0.00000	 345.0	 1	    1.10000	    0.90000;
	50391	 2	 0.0	 0.0	 0.0	 0.0	 34	    1.00000	    0.00000	 345.0	 1	    1.10000	    0.90000;
	50392	 2	 0.0	 0.0	 0.0	 0.0	 34	    1.00000	    0.00000	 138.0	 1	    1.10000	    0.90000;
	50393	 2	 0.0	 0.0	 0.0	 0.0	 34	    1.00000	    0.00000	 345.0	 1	    1.10000	    0.90000;
	50394	 2	 0.0	 0.0	 0.0	 0.0	 34	    1.00000	    0.00000	 138.0	 1	    1.10000	    0.90000;
	50395	 2	 0.0	 0.0	 0.0	 0.0	 34	    1.00000	    0.00000	 230.0	 1	    1.10000	    0.90000;
	50396	 2	 0.0	 0.0	 0.0	 0.0	 34	    1.00000	    0.00000	 345.0	 1	    1.10000	    0.90000;
	50397	 2	 0.0	 0.0	 0.0	 0.0	 34	    1.00000	    0.00000	 345.0	 1	    1.10000	    0.90000;
	50398	 2	 0.0	 0.0	 0.0	 0.0	 34	    1.00000	    0.00000	 230.0	 1	    1.10000	    0.90000;
	50399	 2	 0.0	 0.0	 0.0	 0.0	 34	    1.00000	    0.00000	 345.0	 1	    1.10000	    0.90000;
	50400	 2	 0.0	 0.0	 0.0	 0.0	 34	    1.00000	    0.00000	 345.0	 1	    1.10000	    0.90000;
	50401	 2	 0.0	 0.0	 0.0	 0.0	 34	    1.00000	    0.00000	 345.0	 1	    1.10000	    0.90000;
	50402	 2	 0.0	 0.0	 0.0	 0.0	 34	    1.00000	    0.00000	 138.0	 1	    1.10000	    0.90000;
	50403	 2	 0.0	 0.0	 0.0	 0.0	 34	    1.00000	    0.00000	 345.0	 1	    1.10000	    0.90000;
	50404	 2	 0.0	 0.0	 0.0	 0.0	 34	    1.00000	    0.00000	 138.0	 1	    1.10000	    0.90000;
	50405	 1	 0.0	 0.0	 0.0	 0.0	 34	    1.00000	    0.00000	 345.0	 1	    1.10000	    0.90000;
	50406	 2	 0.0	 0.0	 0.0	 0.0	 34	    1.00000	    0.00000	 345.0	 1	    1.10000	    0.90000;
	50407	 2	 0.0	 0.0	 0.0	 0.0	 34	    1.00000	    0.00000	 345.0	 1	    1.10000	    0.90000;
	50408	 2	 0.0	 0.0	 0.0	 0.0	 34	    1.00000	    0.00000	 345.0	 1	    1.10000	    0.90000;
	50409	 2	 0.0	 0.0	 0.0	 0.0	 34	    1.00000	    0.00000	 345.0	 1	    1.10000	    0.90000;
	50410	 2	 0.0	 0.0	 0.0	 0.0	 34	    1.00000	    0.00000	 138.0	 1	    1.10000	    0.90000;
	50411	 2	 0.0	 0.0	 0.0	 0.0	 34	    1.00000	    0.00000	 345.0	 1	    1.10000	    0.90000;
	50412	 2	 0.0	 0.0	 0.0	 0.0	 34	    1.00000	    0.00000	 138.0	 1	    1.10000	    0.90000;
	50413	 2	 0.0	 0.0	 0.0	 0.0	 34	    1.00000	    0.00000	 230.0	 1	    1.10000	    0.90000;
	50414	 2	 0.0	 0.0	 0.0	 0.0	 34	    1.00000	    0.00000	 138.0	 1	    1.10000	    0.90000;
	50415	 1	 0.0	 0.0	 0.0	 0.0	 34	    1.00000	    0.00000	 230.0	 1	    1.10000	    0.90000;
	50416	 1	 0.0	 0.0	 0.0	 0.0	 34	    1.00000	    0.00000	 345.0	 1	    1.10000	    0.90000;
	50417	 1	 0.0	 0.0	 0.0	 0.0	 34	    1.00000	    0.00000	 345.0	 1	    1.10000	    0.90000;
	50418	 2	 0.0	 0.0	 0.0	 0.0	 34	    1.00000	    0.00000	 345.0	 1	    1.10000	    0.90000;
	50419	 2	 0.0	 0.0	 0.0	 0.0	 34	    1.00000	    0.00000	 138.0	 1	    1.10000	    0.90000;
	50420	 2	 0.0	 0.0	 0.0	 0.0	 34	    1.00000	    0.00000	 230.0	 1	    1.10000	    0.90000;
	50421	 2	 0.0	 0.0	 0.0	 0.0	 34	    1.00000	    0.00000	 138.0	 1	    1.10000	    0.90000;
	50422	 2	 0.0	 0.0	 0.0	 0.0	 34	    1.00000	    0.00000	 345.0	 1	    1.10000	    0.90000;
	50423	 2	 0.0	 0.0	 0.0	 0.0	 34	    1.00000	    0.00000	 345.0	 1	    1.10000	    0.90000;
	50424	 2	 0.0	 0.0	 0.0	 0.0	 34	    1.00000	    0.00000	 138.0	 1	    1.10000	    0.90000;
	50425	 2	 0.0	 0.0	 0.0	 0.0	 34	    1.00000	    0.00000	 138.0	 1	    1.10000	    0.90000;
	50426	 2	 0.0	 0.0	 0.0	 0.0	 34	    1.00000	    0.00000	 138.0	 1	    1.10000	    0.90000;
	50427	 2	 0.0	 0.0	 0.0	 0.0	 34	    1.00000	    0.00000	 138.0	 1	    1.10000	    0.90000;
	50428	 2	 0.0	 0.0	 0.0	 0.0	 34	    1.00000	    0.00000	 138.0	 1	    1.10000	    0.90000;
	50429	 2	 0.0	 0.0	 0.0	 0.0	 34	    1.00000	    0.00000	 345.0	 1	    1.10000	    0.90000;
	50430	 2	 0.0	 0.0	 0.0	 0.0	 34	    1.00000	    0.00000	 138.0	 1	    1.10000	    0.90000;
	50431	 2	 0.0	 0.0	 0.0	 0.0	 34	    1.00000	    0.00000	 345.0	 1	    1.10000	    0.90000;
	50432	 1	 0.0	 0.0	 0.0	 0.0	 34	    1.00000	    0.00000	 230.0	 1	    1.10000	    0.90000;
	50433	 2	 0.0	 0.0	 0.0	 0.0	 34	    1.00000	    0.00000	 138.0	 1	    1.10000	    0.90000;
	50434	 2	 0.0	 0.0	 0.0	 0.0	 34	    1.00000	    0.00000	 345.0	 1	    1.10000	    0.90000;
	50435	 2	 0.0	 0.0	 0.0	 0.0	 34	    1.00000	    0.00000	 138.0	 1	    1.10000	    0.90000;
	50436	 2	 0.0	 0.0	 0.0	 0.0	 34	    1.00000	    0.00000	 138.0	 1	    1.10000	    0.90000;
	50437	 2	 0.0	 0.0	 0.0	 0.0	 34	    1.00000	    0.00000	 345.0	 1	    1.10000	    0.90000;
	50438	 2	 0.0	 0.0	 0.0	 0.0	 34	    1.00000	    0.00000	 138.0	 1	    1.10000	    0.90000;
	50439	 2	 0.0	 0.0	 0.0	 0.0	 34	    1.00000	    0.00000	 345.0	 1	    1.10000	    0.90000;
	50440	 2	 0.0	 0.0	 0.0	 0.0	 34	    1.00000	    0.00000	 230.0	 1	    1.10000	    0.90000;
	50441	 2	 0.0	 0.0	 0.0	 0.0	 34	    1.00000	    0.00000	 345.0	 1	    1.10000	    0.90000;
	50442	 2	 0.0	 0.0	 0.0	 0.0	 34	    1.00000	    0.00000	 345.0	 1	    1.10000	    0.90000;
	50443	 2	 0.0	 0.0	 0.0	 0.0	 34	    1.00000	    0.00000	 138.0	 1	    1.10000	    0.90000;
	50444	 2	 0.0	 0.0	 0.0	 0.0	 34	    1.00000	    0.00000	 138.0	 1	    1.10000	    0.90000;
	50445	 1	 0.0	 0.0	 0.0	 0.0	 34	    1.00000	    0.00000	 345.0	 1	    1.10000	    0.90000;
	50446	 1	 0.0	 0.0	 0.0	 0.0	 34	    1.00000	    0.00000	 345.0	 1	    1.10000	    0.90000;
	50447	 2	 0.0	 0.0	 0.0	 0.0	 34	    1.00000	    0.00000	 138.0	 1	    1.10000	    0.90000;
	50448	 2	 0.0	 0.0	 0.0	 0.0	 34	    1.00000	    0.00000	 345.0	 1	    1.10000	    0.90000;
	50449	 2	 0.0	 0.0	 0.0	 0.0	 34	    1.00000	    0.00000	 345.0	 1	    1.10000	    0.90000;
	50450	 2	 0.0	 0.0	 0.0	 0.0	 34	    1.00000	    0.00000	 138.0	 1	    1.10000	    0.90000;
	50451	 2	 0.0	 0.0	 0.0	 0.0	 34	    1.00000	    0.00000	 138.0	 1	    1.10000	    0.90000;
	50452	 2	 0.0	 0.0	 0.0	 0.0	 34	    1.00000	    0.00000	 345.0	 1	    1.10000	    0.90000;
	50453	 2	 0.0	 0.0	 0.0	 0.0	 34	    1.00000	    0.00000	 345.0	 1	    1.10000	    0.90000;
	50454	 2	 0.0	 0.0	 0.0	 0.0	 34	    1.00000	    0.00000	 345.0	 1	    1.10000	    0.90000;
	50455	 2	 0.0	 0.0	 0.0	 0.0	 34	    1.00000	    0.00000	 345.0	 1	    1.10000	    0.90000;
	50456	 2	 0.0	 0.0	 0.0	 0.0	 34	    1.00000	    0.00000	 138.0	 1	    1.10000	    0.90000;
	50457	 2	 0.0	 0.0	 0.0	 0.0	 34	    1.00000	    0.00000	 138.0	 1	    1.10000	    0.90000;
	50458	 2	 0.0	 0.0	 0.0	 0.0	 34	    1.00000	    0.00000	 138.0	 1	    1.10000	    0.90000;
	50459	 2	 0.0	 0.0	 0.0	 0.0	 34	    1.00000	    0.00000	 138.0	 1	    1.10000	    0.90000;
	50460	 2	 0.0	 0.0	 0.0	 0.0	 34	    1.00000	    0.00000	 230.0	 1	    1.10000	    0.90000;
	50461	 2	 0.0	 0.0	 0.0	 0.0	 34	    1.00000	    0.00000	 345.0	 1	    1.10000	    0.90000;
	50462	 2	 0.0	 0.0	 0.0	 0.0	 34	    1.00000	    0.00000	 138.0	 1	    1.10000	    0.90000;
	50463	 2	 0.0	 0.0	 0.0	 0.0	 34	    1.00000	    0.00000	 345.0	 1	    1.10000	    0.90000;
	50464	 2	 0.0	 0.0	 0.0	 0.0	 34	    1.00000	    0.00000	 138.0	 1	    1.10000	    0.90000;
	50465	 1	 0.0	 0.0	 0.0	 0.0	 34	    1.00000	    0.00000	 345.0	 1	    1.10000	    0.90000;
	50466	 1	 0.0	 0.0	 0.0	 0.0	 34	    1.00000	    0.00000	 138.0	 1	    1.10000	    0.90000;
	50467	 2	 0.0	 0.0	 0.0	 0.0	 34	    1.00000	    0.00000	 138.0	 1	    1.10000	    0.90000;
	50468	 1	 0.0	 0.0	 0.0	 0.0	 34	    1.00000	    0.00000	 138.0	 1	    1.10000	    0.90000;
	50469	 2	 0.0	 0.0	 0.0	 0.0	 34	    1.00000	    0.00000	 138.0	 1	    1.10000	    0.90000;
	50470	 2	 0.0	 0.0	 0.0	 0.0	 34	    1.00000	    0.00000	 230.0	 1	    1.10000	    0.90000;
	50471	 2	 0.0	 0.0	 0.0	 0.0	 34	    1.00000	    0.00000	 138.0	 1	    1.10000	    0.90000;
	50472	 2	 0.0	 0.0	 0.0	 0.0	 34	    1.00000	    0.00000	 345.0	 1	    1.10000	    0.90000;
	50473	 2	 0.0	 0.0	 0.0	 0.0	 34	    1.00000	    0.00000	 138.0	 1	    1.10000	    0.90000;
	50474	 2	 0.0	 0.0	 0.0	 0.0	 34	    1.00000	    0.00000	 138.0	 1	    1.10000	    0.90000;
	50475	 2	 0.0	 0.0	 0.0	 0.0	 34	    1.00000	    0.00000	 230.0	 1	    1.10000	    0.90000;
	50476	 2	 0.0	 0.0	 0.0	 0.0	 34	    1.00000	    0.00000	 345.0	 1	    1.10000	    0.90000;
	50477	 2	 0.0	 0.0	 0.0	 0.0	 34	    1.00000	    0.00000	 345.0	 1	    1.10000	    0.90000;
	50478	 2	 0.0	 0.0	 0.0	 0.0	 34	    1.00000	    0.00000	 138.0	 1	    1.10000	    0.90000;
	50479	 2	 0.0	 0.0	 0.0	 0.0	 34	    1.00000	    0.00000	 345.0	 1	    1.10000	    0.90000;
	50480	 1	 0.0	 0.0	 0.0	 0.0	 34	    1.00000	    0.00000	 345.0	 1	    1.10000	    0.90000;
	50481	 2	 0.0	 0.0	 0.0	 0.0	 34	    1.00000	    0.00000	 345.0	 1	    1.10000	    0.90000;
	50482	 1	 0.0	 0.0	 0.0	 0.0	 34	    1.00000	    0.00000	 345.0	 1	    1.10000	    0.90000;
	50483	 2	 0.0	 0.0	 0.0	 0.0	 34	    1.00000	    0.00000	 138.0	 1	    1.10000	    0.90000;
	50484	 1	 0.0	 0.0	 0.0	 0.0	 34	    1.00000	    0.00000	 138.0	 1	    1.10000	    0.90000;
	50485	 2	 0.0	 0.0	 0.0	 0.0	 34	    1.00000	    0.00000	 345.0	 1	    1.10000	    0.90000;
	50486	 2	 0.0	 0.0	 0.0	 0.0	 34	    1.00000	    0.00000	 138.0	 1	    1.10000	    0.90000;
	50487	 1	 0.0	 0.0	 0.0	 0.0	 34	    1.00000	    0.00000	 230.0	 1	    1.10000	    0.90000;
	50488	 2	 0.0	 0.0	 0.0	 0.0	 34	    1.00000	    0.00000	 138.0	 1	    1.10000	    0.90000;
	50489	 2	 0.0	 0.0	 0.0	 0.0	 34	    1.00000	    0.00000	 345.0	 1	    1.10000	    0.90000;
	50490	 1	 0.0	 0.0	 0.0	 0.0	 34	    1.00000	    0.00000	 138.0	 1	    1.10000	    0.90000;
	50491	 1	 0.0	 0.0	 0.0	 0.0	 34	    1.00000	    0.00000	 345.0	 1	    1.10000	    0.90000;
	50492	 2	 0.0	 0.0	 0.0	 0.0	 34	    1.00000	    0.00000	 138.0	 1	    1.10000	    0.90000;
	50493	 2	 0.0	 0.0	 0.0	 0.0	 34	    1.00000	    0.00000	 138.0	 1	    1.10000	    0.90000;
	50494	 2	 0.0	 0.0	 0.0	 0.0	 34	    1.00000	    0.00000	 138.0	 1	    1.10000	    0.90000;
	50495	 2	 0.0	 0.0	 0.0	 0.0	 34	    1.00000	    0.00000	 138.0	 1	    1.10000	    0.90000;
	50496	 2	 0.0	 0.0	 0.0	 0.0	 34	    1.00000	    0.00000	 138.0	 1	    1.10000	    0.90000;
	50497	 2	 0.0	 0.0	 0.0	 0.0	 34	    1.00000	    0.00000	 345.0	 1	    1.10000	    0.90000;
	50498	 1	 0.0	 0.0	 0.0	 0.0	 34	    1.00000	    0.00000	 138.0	 1	    1.10000	    0.90000;
	50499	 2	 0.0	 0.0	 0.0	 0.0	 34	    1.00000	    0.00000	 345.0	 1	    1.10000	    0.90000;
	50500	 2	 0.0	 0.0	 0.0	 0.0	 34	    1.00000	    0.00000	 138.0	 1	    1.10000	    0.90000;
	50501	 2	 0.0	 0.0	 0.0	 0.0	 34	    1.00000	    0.00000	 138.0	 1	    1.10000	    0.90000;
	50502	 1	 0.0	 0.0	 0.0	 0.0	 34	    1.00000	    0.00000	 345.0	 1	    1.10000	    0.90000;
	50503	 2	 0.0	 0.0	 0.0	 0.0	 34	    1.00000	    0.00000	 138.0	 1	    1.10000	    0.90000;
	50504	 2	 0.0	 0.0	 0.0	 0.0	 34	    1.00000	    0.00000	 69.0	 1	    1.10000	    0.90000;
	50505	 2	 0.0	 0.0	 0.0	 0.0	 34	    1.00000	    0.00000	 345.0	 1	    1.10000	    0.90000;
	50506	 2	 0.0	 0.0	 0.0	 0.0	 34	    1.00000	    0.00000	 69.0	 1	    1.10000	    0.90000;
	50507	 1	 0.0	 0.0	 0.0	 0.0	 34	    1.00000	    0.00000	 138.0	 1	    1.10000	    0.90000;
	50508	 1	 0.0	 0.0	 0.0	 0.0	 34	    1.00000	    0.00000	 345.0	 1	    1.10000	    0.90000;
	50509	 1	 0.0	 0.0	 0.0	 0.0	 34	    1.00000	    0.00000	 230.0	 1	    1.10000	    0.90000;
...
];

%% generator data
%	bus	Pg	Qg	Qmax	Qmin	Vg	mBase	status	Pmax	Pmin	Pc1	Pc2	Qc1min	Qc1max	Qc2min	Qc2max	ramp_agc	ramp_10	ramp_30	ramp_q	apf
mpc.gen = [
	50310	 1317.15	 102.25	 655.9	 -451.4	 1.0	 100.0	 1	 1354.3	 1280.0	 0.0	 0.0	 0.0	 0.0	 0.0	 0.0	 0.0	 0.0	 0.0	 0.0	 0.0	0.0000	0.0000; % NUC
	50310	 1317.15	 102.25	 655.9	 -451.4	 1.0	 100.0	 1	 1354.3	 1280.0	 0.0	 0.0	 0.0	 0.0	 0.0	 0.0	 0.0	 0.0	 0.0	 0.0	 0.0	0.8204	0.8230; % COW
	50311	 1163.5	 91.75	 588.5	 -405.0	 1.0	 100.0	 1	 1215.0	 1112.0	 0.0	 0.0	 0.0	 0.0	 0.0	 0.0	 0.0	 0.0	 0.0	 0.0	 0.0	0.8204	0.8230; % COW
	50311	 1159.0	 91.75	 588.5	 -405.0	 1.0	 100.0	 1	 1215.0	 1103.0	 0.0	 0.0	 0.0	 0.0	 0.0	 0.0	 0.0	 0.0	 0.0	 0.0	 0.0	0.8204	0.8230; % COW
	50312	 632.4	 0.0	 267.4	 -267.4	 1.0	 100.0	 1	 916.8	 348.0	 0.0	 0.0	 0.0	 0.0	 0.0	 0.0	 0.0	 0.0	 0.0	 0.0	 916.8	0.8204	0.8230; % COW
	50313	 646.5	 0.0	 324.1	 -324.1	 1.0	 100.0	 1	 893.0	 400.0	 0.0	 0.0	 0.0	 0.0	 0.0	 0.0	 0.0	 0.0	 0.0	 0.0	 893.0	0.8204	0.8230; % COW
	50313	 678.4	 0.0	 407.6	 -407.6	 1.0	 100.0	 1	 956.8	 400.0	 0.0	 0.0	 0.0	 0.0	 0.0	 0.0	 0.0	 0.0	 0.0	 0.0	 956.8	0.8204	0.8230; % COW
	50314	 765.6	 0.0	 260.7	 -260.7	 1.0	 100.0	 1	 793.2	 738.0	 0.0	 0.0	 0.0	 0.0	 0.0	 0.0	 0.0	 0.0	 0.0	 0.0	 793.2	0.8204	0.8230; % COW
	50314	 0.0	 0.0	 260.7	 -260.7	 1.0	 100.0	 0	 793.2	 738.0	 0.0	 0.0	 0.0	 0.0	 0.0	 0.0	 0.0	 0.0	 0.0	 0.0	 793.2	0.8204	0.8230; % COW
	50314	 0.0	 0.0	 260.7	 -260.7	 1.0	 100.0	 0	 793.2	 734.0	 0.0	 0.0	 0.0	 0.0	 0.0	 0.0	 0.0	 0.0	 0.0	 0.0	 793.2	0.8204	0.8230; % COW
	50315	 415.0	 57.75	 370.5	 -255.0	 1.0	 100.0	 1	 765.0	 65.0	 0.0	 0.0	 0.0	 0.0	 0.0	 0.0	 0.0	 0.0	 0.0	 0.0	 765.0	0.8204	0.8230; % COW
	50315	 415.0	 57.75	 370.5	 -255.0	 1.0	 100.0	 1	 765.0	 65.0	 0.0	 0.0	 0.0	 0.0	 0.0	 0.0	 0.0	 0.0	 0.0	 0.0	 765.0	0.8204	0.8230; % COW
	50316	 560.5	 54.45	 349.2	 -240.3	 1.0	 100.0	 1	 721.0	 400.0	 0.0	 0.0	 0.0	 0.0	 0.0	 0.0	 0.0	 0.0	 0.0	 0.0	 721.0	0.8204	0.8230; % COW
	50317	 467.5	 54.35	 348.7	 -240.0	 1.0	 100.0	 1	 720.0	 215.0	 0.0	 0.0	 0.0	 0.0	 0.0	 0.0	 0.0	 0.0	 0.0	 0.0	 720.0	0.8204	0.8230; % COW
	50318	 570.75	 49.95	 320.4	 -220.5	 1.0	 100.0	 1	 661.5	 480.0	 0.0	 0.0	 0.0	 0.0	 0.0	 0.0	 0.0	 0.0	 0.0	 0.0	 661.5	0.8204	0.8230; % COW
	50319	 486.2	 46.95	 301.4	 -207.5	 1.0	 100.0	 1	 622.4	 350.0	 0.0	 0.0	 0.0	 0.0	 0.0	 0.0	 0.0	 0.0	 0.0	 0.0	 622.4	0.8204	0.8230; % COW
	50320	 108.9	 26.9	 116.4	 -62.6	 1.0	 100.0	 1	 187.8	 30.0	 0.0	 0.0	 0.0	 0.0	 0.0	 0.0	 0.0	 0.0	 0.0	 0.0	 187.8	0.5173	0.5177; % NG
	50320	 108.9	 26.9	 116.4	 -62.6	 1.0	 100.0	 1	 187.8	 30.0	 0.0	 0.0	 0.0	 0.0	 0.0	 0.0	 0.0	 0.0	 0.0	 0.0	 187.8	0.5173	0.5177; % NG
	50320	 320.25	 43.8	 281.1	 -193.5	 1.0	 100.0	 1	 580.5	 60.0	 0.0	 0.0	 0.0	 0.0	 0.0	 0.0	 0.0	 0.0	 0.0	 0.0	 580.5	0.8204	0.8230; % COW
	50320	 454.55	 55.4	 355.5	 -244.7	 1.0	 100.0	 1	 734.1	 175.0	 0.0	 0.0	 0.0	 0.0	 0.0	 0.0	 0.0	 0.0	 0.0	 0.0	 734.1	0.8204	0.8230; % COW
	50320	 454.55	 55.4	 355.5	 -244.7	 1.0	 100.0	 1	 734.1	 175.0	 0.0	 0.0	 0.0	 0.0	 0.0	 0.0	 0.0	 0.0	 0.0	 0.0	 734.1	0.0000	0.0000; % NUC
	50320	 179.6	 42.85	 185.4	 -99.7	 1.0	 100.0	 1	 299.2	 60.0	 0.0	 0.0	 0.0	 0.0	 0.0	 0.0	 0.0	 0.0	 0.0	 0.0	 299.2	0.8204	0.8230; % COW
	50320	 394.8	 71.7	 348.3	 -204.9	 1.0	 100.0	 1	 614.6	 175.0	 0.0	 0.0	 0.0	 0.0	 0.0	 0.0	 0.0	 0.0	 0.0	 0.0	 614.6	0.8204	0.8230; % COW
	50320	 414.5	 76.3	 370.6	 -218.0	 1.0	 100.0	 1	 654.0	 175.0	 0.0	 0.0	 0.0	 0.0	 0.0	 0.0	 0.0	 0.0	 0.0	 0.0	 654.0	0.8204	0.8230; % COW
	50321	 228.4	 38.875	 177.95	 -100.2	 1.0	 100.0	 1	 300.55	 156.25	 0.0	 0.0	 0.0	 0.0	 0.0	 0.0	 0.0	 0.0	 0.0	 0.0	 300.55	0.5173	0.5177; % NG
	50321	 228.4	 38.875	 177.95	 -100.2	 1.0	 100.0	 1	 300.55	 156.25	 0.0	 0.0	 0.0	 0.0	 0.0	 0.0	 0.0	 0.0	 0.0	 0.0	 300.55	0.8204	0.8230; % COW
	50322	 431.7	 44.8	 287.4	 -197.8	 1.0	 100.0	 1	 593.4	 270.0	 0.0	 0.0	 0.0	 0.0	 0.0	 0.0	 0.0	 0.0	 0.0	 0.0	 593.4	0.8204	0.8230; % COW
	50322	 431.7	 44.8	 287.4	 -197.8	 1.0	 100.0	 1	 593.4	 270.0	 0.0	 0.0	 0.0	 0.0	 0.0	 0.0	 0.0	 0.0	 0.0	 0.0	 593.4	0.8204	0.8230; % COW
	50323	 754.6	 0.0	 260.7	 -260.7	 1.0	 100.0	 1	 793.2	 716.0	 0.0	 0.0	 0.0	 0.0	 0.0	 0.0	 0.0	 0.0	 0.0	 0.0	 793.2	0.8204	0.8230; % COW
	50323	 557.7	 0.0	 252.8	 -252.8	 1.0	 100.0	 1	 593.4	 522.0	 0.0	 0.0	 0.0	 0.0	 0.0	 0.0	 0.0	 0.0	 0.0	 0.0	 593.4	0.8204	0.8230; % COW
	50323	 557.7	 0.0	 252.8	 -252.8	 1.0	 100.0	 1	 593.4	 522.0	 0.0	 0.0	 0.0	 0.0	 0.0	 0.0	 0.0	 0.0	 0.0	 0.0	 593.4	0.8204	0.8230; % COW
	50324	 565.3	 0.0	 214.4	 -214.4	 1.0	 100.0	 1	 590.6	 540.0	 0.0	 0.0	 0.0	 0.0	 0.0	 0.0	 0.0	 0.0	 0.0	 0.0	 590.6	0.8204	0.8230; % COW
	50325	 376.45	 42.85	 275.0	 -189.3	 1.0	 100.0	 1	 567.9	 185.0	 0.0	 0.0	 0.0	 0.0	 0.0	 0.0	 0.0	 0.0	 0.0	 0.0	 567.9	0.7001	0.7018; % PEL
	50325	 376.45	 42.85	 275.0	 -189.3	 1.0	 100.0	 1	 567.9	 185.0	 0.0	 0.0	 0.0	 0.0	 0.0	 0.0	 0.0	 0.0	 0.0	 0.0	 567.9	0.8204	0.8230; % COW
	50326	 584.0	 66.25	 425.2	 -292.7	 1.0	 100.0	 1	 878.0	 290.0	 0.0	 0.0	 0.0	 0.0	 0.0	 0.0	 0.0	 0.0	 0.0	 0.0	 878.0	0.8204	0.8230; % COW
	50326	 344.0	 42.7	 274.1	 -188.7	 1.0	 100.0	 1	 566.0	 122.0	 0.0	 0.0	 0.0	 0.0	 0.0	 0.0	 0.0	 0.0	 0.0	 0.0	 566.0	0.5173	0.5177; % NG
	50327	 354.0	 42.15	 270.3	 -186.0	 1.0	 100.0	 1	 558.0	 150.0	 0.0	 0.0	 0.0	 0.0	 0.0	 0.0	 0.0	 0.0	 0.0	 0.0	 558.0	0.5173	0.5177; % NG
	50327	 354.0	 42.15	 270.3	 -186.0	 1.0	 100.0	 1	 558.0	 150.0	 0.0	 0.0	 0.0	 0.0	 0.0	 0.0	 0.0	 0.0	 0.0	 0.0	 558.0	0.5173	0.5177; % NG
	50327	 354.0	 42.15	 270.3	 -186.0	 1.0	 100.0	 1	 558.0	 150.0	 0.0	 0.0	 0.0	 0.0	 0.0	 0.0	 0.0	 0.0	 0.0	 0.0	 558.0	0.8204	0.8230; % COW
	50328	 320.0	 34.75	 222.8	 -153.3	 1.0	 100.0	 1	 460.0	 180.0	 0.0	 0.0	 0.0	 0.0	 0.0	 0.0	 0.0	 0.0	 0.0	 0.0	 460.0	0.8204	0.8230; % COW
	50328	 387.5	 46.45	 297.9	 -205.0	 1.0	 100.0	 1	 615.0	 160.0	 0.0	 0.0	 0.0	 0.0	 0.0	 0.0	 0.0	 0.0	 0.0	 0.0	 615.0	0.8204	0.8230; % COW
	50328	 387.5	 46.45	 297.9	 -205.0	 1.0	 100.0	 1	 615.0	 160.0	 0.0	 0.0	 0.0	 0.0	 0.0	 0.0	 0.0	 0.0	 0.0	 0.0	 615.0	0.8204	0.8230; % COW
	50329	 301.75	 34.2	 219.6	 -151.2	 1.0	 100.0	 1	 453.5	 150.0	 0.0	 0.0	 0.0	 0.0	 0.0	 0.0	 0.0	 0.0	 0.0	 0.0	 453.5	0.5173	0.5177; % NG
	50330	 27.95	 7.45	 32.2	 -17.3	 1.0	 100.0	 1	 51.9	 4.0	 0.0	 0.0	 0.0	 0.0	 0.0	 0.0	 0.0	 0.0	 0.0	 0.0	 51.9	0.5173	0.5177; % NG
	50330	 176.0	 18.925	 113.4	 -75.55	 1.0	 100.0	 1	 226.6	 125.4	 0.0	 0.0	 0.0	 0.0	 0.0	 0.0	 0.0	 0.0	 0.0	 0.0	 226.6	0.5173	0.5177; % NG
	50330	 176.0	 18.925	 113.4	 -75.55	 1.0	 100.0	 1	 226.6	 125.4	 0.0	 0.0	 0.0	 0.0	 0.0	 0.0	 0.0	 0.0	 0.0	 0.0	 226.6	0.5173	0.5177; % NG
	50330	 105.0	 9.75	 62.5	 -43.0	 1.0	 100.0	 1	 129.0	 81.0	 0.0	 0.0	 0.0	 0.0	 0.0	 0.0	 0.0	 0.0	 0.0	 0.0	 129.0	0.5173	0.5177; % NG
	50330	 105.0	 9.75	 62.5	 -43.0	 1.0	 100.0	 1	 129.0	 81.0	 0.0	 0.0	 0.0	 0.0	 0.0	 0.0	 0.0	 0.0	 0.0	 0.0	 129.0	0.7001	0.7018; % PEL
	50330	 105.0	 9.75	 62.5	 -43.0	 1.0	 100.0	 1	 129.0	 81.0	 0.0	 0.0	 0.0	 0.0	 0.0	 0.0	 0.0	 0.0	 0.0	 0.0	 129.0	0.5173	0.5177; % NG
	50331	 258.0	 33.65	 216.0	 -148.7	 1.0	 100.0	 1	 446.0	 70.0	 0.0	 0.0	 0.0	 0.0	 0.0	 0.0	 0.0	 0.0	 0.0	 0.0	 446.0	0.8204	0.8230; % COW
	50331	 258.0	 33.65	 216.0	 -148.7	 1.0	 100.0	 1	 446.0	 70.0	 0.0	 0.0	 0.0	 0.0	 0.0	 0.0	 0.0	 0.0	 0.0	 0.0	 446.0	0.8204	0.8230; % COW
	50332	 270.5	 33.65	 216.0	 -148.7	 1.0	 100.0	 1	 446.0	 95.0	 0.0	 0.0	 0.0	 0.0	 0.0	 0.0	 0.0	 0.0	 0.0	 0.0	 446.0	0.5173	0.5177; % NG
	50333	 285.5	 33.65	 216.0	 -148.7	 1.0	 100.0	 1	 446.0	 125.0	 0.0	 0.0	 0.0	 0.0	 0.0	 0.0	 0.0	 0.0	 0.0	 0.0	 446.0	0.5173	0.5177; % NG
	50333	 305.5	 36.7	 235.4	 -162.0	 1.0	 100.0	 1	 486.0	 125.0	 0.0	 0.0	 0.0	 0.0	 0.0	 0.0	 0.0	 0.0	 0.0	 0.0	 486.0	0.8204	0.8230; % COW
	50334	 330.0	 30.95	 198.6	 -136.7	 1.0	 100.0	 1	 410.0	 250.0	 0.0	 0.0	 0.0	 0.0	 0.0	 0.0	 0.0	 0.0	 0.0	 0.0	 410.0	0.5173	0.5177; % NG
	50335	 287.5	 0.0	 207.3	 -207.3	 1.0	 100.0	 1	 455.0	 120.0	 0.0	 0.0	 0.0	 0.0	 0.0	 0.0	 0.0	 0.0	 0.0	 0.0	 455.0	0.5173	0.5177; % NG
	50335	 287.5	 0.0	 207.3	 -207.3	 1.0	 100.0	 1	 455.0	 120.0	 0.0	 0.0	 0.0	 0.0	 0.0	 0.0	 0.0	 0.0	 0.0	 0.0	 455.0	0.8204	0.8230; % COW
	50335	 227.4	 84.35	 303.6	 -134.9	 1.0	 100.0	 1	 404.8	 50.0	 0.0	 0.0	 0.0	 0.0	 0.0	 0.0	 0.0	 0.0	 0.0	 0.0	 404.8	0.5173	0.5177; % NG
	50336	 497.5	 40.1	 257.2	 -177.0	 1.0	 100.0	 1	 531.0	 464.0	 0.0	 0.0	 0.0	 0.0	 0.0	 0.0	 0.0	 0.0	 0.0	 0.0	 531.0	0.5173	0.5177; % NG
	50336	 374.75	 29.9	 192.0	 -132.2	 1.0	 100.0	 1	 396.5	 353.0	 0.0	 0.0	 0.0	 0.0	 0.0	 0.0	 0.0	 0.0	 0.0	 0.0	 396.5	0.5173	0.5177; % NG
	50337	 261.5	 27.2	 174.4	 -120.0	 1.0	 100.0	 1	 360.0	 163.0	 0.0	 0.0	 0.0	 0.0	 0.0	 0.0	 0.0	 0.0	 0.0	 0.0	 360.0	0.5173	0.5177; % NG
	50337	 261.5	 27.2	 174.4	 -120.0	 1.0	 100.0	 1	 360.0	 163.0	 0.0	 0.0	 0.0	 0.0	 0.0	 0.0	 0.0	 0.0	 0.0	 0.0	 360.0	0.8204	0.8230; % COW
	50337	 261.5	 27.2	 174.4	 -120.0	 1.0	 100.0	 1	 360.0	 163.0	 0.0	 0.0	 0.0	 0.0	 0.0	 0.0	 0.0	 0.0	 0.0	 0.0	 360.0	0.5173	0.5177; % NG
	50338	 237.5	 21.5	 138.0	 -95.0	 1.0	 100.0	 1	 285.0	 190.0	 0.0	 0.0	 0.0	 0.0	 0.0	 0.0	 0.0	 0.0	 0.0	 0.0	 285.0	0.5173	0.5177; % NG
	50338	 106.5	 10.05	 64.4	 -44.3	 1.0	 100.0	 1	 133.0	 80.0	 0.0	 0.0	 0.0	 0.0	 0.0	 0.0	 0.0	 0.0	 0.0	 0.0	 133.0	0.5173	0.5177; % NG
	50339	 283.2	 21.4	 137.2	 -94.4	 1.0	 100.0	 1	 283.2	 283.2	 0.0	 0.0	 0.0	 0.0	 0.0	 0.0	 0.0	 0.0	 0.0	 0.0	 0.0	0.5173	0.5177; % NG
	50340	 146.05	 20.95	 134.6	 -92.7	 1.0	 100.0	 1	 278.0	 14.1	 0.0	 0.0	 0.0	 0.0	 0.0	 0.0	 0.0	 0.0	 0.0	 0.0	 0.0	0.5173	0.5177; % NG
	50341	 160.7	 31.65	 153.8	 -90.5	 1.0	 100.0	 1	 271.4	 50.0	 0.0	 0.0	 0.0	 0.0	 0.0	 0.0	 0.0	 0.0	 0.0	 0.0	 271.4	0.5173	0.5177; % NG
	50341	 160.7	 31.65	 153.8	 -90.5	 1.0	 100.0	 1	 271.4	 50.0	 0.0	 0.0	 0.0	 0.0	 0.0	 0.0	 0.0	 0.0	 0.0	 0.0	 271.4	0.5173	0.5177; % NG
	50342	 218.5	 38.25	 165.5	 -89.0	 1.0	 100.0	 1	 267.0	 170.0	 0.0	 0.0	 0.0	 0.0	 0.0	 0.0	 0.0	 0.0	 0.0	 0.0	 267.0	0.5173	0.5177; % NG
	50342	 201.0	 38.25	 165.5	 -89.0	 1.0	 100.0	 1	 267.0	 135.0	 0.0	 0.0	 0.0	 0.0	 0.0	 0.0	 0.0	 0.0	 0.0	 0.0	 267.0	0.8204	0.8230; % COW
	50342	 201.0	 38.25	 165.5	 -89.0	 1.0	 100.0	 1	 267.0	 135.0	 0.0	 0.0	 0.0	 0.0	 0.0	 0.0	 0.0	 0.0	 0.0	 0.0	 267.0	0.5173	0.5177; % NG
	50343	 124.5	 18.8	 120.6	 -83.0	 1.0	 100.0	 1	 249.0	 0.0	 0.0	 0.0	 0.0	 0.0	 0.0	 0.0	 0.0	 0.0	 0.0	 0.0	 0.0	0.5173	0.5177; % NG
	50344	 225.35	 35.45	 153.5	 -82.6	 1.0	 100.0	 1	 247.7	 203.0	 0.0	 0.0	 0.0	 0.0	 0.0	 0.0	 0.0	 0.0	 0.0	 0.0	 247.7	0.5173	0.5177; % NG
	50344	 369.0	 29.2	 187.4	 -129.0	 1.0	 100.0	 1	 387.0	 351.0	 0.0	 0.0	 0.0	 0.0	 0.0	 0.0	 0.0	 0.0	 0.0	 0.0	 387.0	0.5173	0.5177; % NG
	50345	 151.75	 18.7	 119.9	 -82.5	 1.0	 100.0	 1	 247.5	 56.0	 0.0	 0.0	 0.0	 0.0	 0.0	 0.0	 0.0	 0.0	 0.0	 0.0	 247.5	0.5173	0.5177; % NG
	50345	 151.75	 18.7	 119.9	 -82.5	 1.0	 100.0	 1	 247.5	 56.0	 0.0	 0.0	 0.0	 0.0	 0.0	 0.0	 0.0	 0.0	 0.0	 0.0	 247.5	0.5173	0.5177; % NG
	50346	 163.95	 18.4	 118.1	 -81.3	 1.0	 100.0	 1	 243.9	 84.0	 0.0	 0.0	 0.0	 0.0	 0.0	 0.0	 0.0	 0.0	 0.0	 0.0	 243.9	0.5173	0.5177; % NG
	50346	 163.95	 18.4	 118.1	 -81.3	 1.0	 100.0	 1	 243.9	 84.0	 0.0	 0.0	 0.0	 0.0	 0.0	 0.0	 0.0	 0.0	 0.0	 0.0	 243.9	0.5173	0.5177; % NG
	50346	 192.3	 22.7	 145.6	 -100.2	 1.0	 100.0	 1	 300.6	 84.0	 0.0	 0.0	 0.0	 0.0	 0.0	 0.0	 0.0	 0.0	 0.0	 0.0	 300.6	0.5173	0.5177; % NG
	50347	 196.0	 19.8	 126.9	 -87.3	 1.0	 100.0	 1	 262.0	 130.0	 0.0	 0.0	 0.0	 0.0	 0.0	 0.0	 0.0	 0.0	 0.0	 0.0	 262.0	0.8204	0.8230; % COW
	50347	 163.5	 18.25	 117.2	 -80.7	 1.0	 100.0	 1	 242.0	 85.0	 0.0	 0.0	 0.0	 0.0	 0.0	 0.0	 0.0	 0.0	 0.0	 0.0	 242.0	0.5173	0.5177; % NG
	50347	 163.5	 18.25	 117.2	 -80.7	 1.0	 100.0	 1	 242.0	 85.0	 0.0	 0.0	 0.0	 0.0	 0.0	 0.0	 0.0	 0.0	 0.0	 0.0	 242.0	0.5173	0.5177; % NG
	50348	 195.85	 34.6	 149.8	 -80.6	 1.0	 100.0	 1	 241.7	 150.0	 0.0	 0.0	 0.0	 0.0	 0.0	 0.0	 0.0	 0.0	 0.0	 0.0	 241.7	0.5173	0.5177; % NG
	50348	 195.85	 34.6	 149.8	 -80.6	 1.0	 100.0	 1	 241.7	 150.0	 0.0	 0.0	 0.0	 0.0	 0.0	 0.0	 0.0	 0.0	 0.0	 0.0	 241.7	0.5173	0.5177; % NG
	50348	 201.4	 36.2	 156.7	 -84.3	 1.0	 100.0	 1	 252.8	 150.0	 0.0	 0.0	 0.0	 0.0	 0.0	 0.0	 0.0	 0.0	 0.0	 0.0	 252.8	0.5173	0.5177; % NG
	50348	 201.4	 36.2	 156.7	 -84.3	 1.0	 100.0	 1	 252.8	 150.0	 0.0	 0.0	 0.0	 0.0	 0.0	 0.0	 0.0	 0.0	 0.0	 0.0	 252.8	0.8204	0.8230; % COW
	50349	 120.5	 18.2	 116.7	 -80.3	 1.0	 100.0	 1	 241.0	 0.0	 0.0	 0.0	 0.0	 0.0	 0.0	 0.0	 0.0	 0.0	 0.0	 0.0	 0.0	0.5173	0.5177; % NG
	50350	 144.7	 34.3	 148.4	 -79.8	 1.0	 100.0	 1	 239.4	 50.0	 0.0	 0.0	 0.0	 0.0	 0.0	 0.0	 0.0	 0.0	 0.0	 0.0	 239.4	0.5173	0.5177; % NG
	50350	 144.7	 34.3	 148.4	 -79.8	 1.0	 100.0	 1	 239.4	 50.0	 0.0	 0.0	 0.0	 0.0	 0.0	 0.0	 0.0	 0.0	 0.0	 0.0	 239.4	0.5173	0.5177; % NG
	50350	 388.3	 69.05	 335.3	 -197.2	 1.0	 100.0	 1	 591.6	 185.0	 0.0	 0.0	 0.0	 0.0	 0.0	 0.0	 0.0	 0.0	 0.0	 0.0	 591.6	0.8204	0.8230; % COW
	50350	 264.2	 55.25	 268.3	 -157.8	 1.0	 100.0	 1	 473.4	 55.0	 0.0	 0.0	 0.0	 0.0	 0.0	 0.0	 0.0	 0.0	 0.0	 0.0	 473.4	0.8204	0.8230; % COW
	50350	 281.2	 59.25	 287.6	 -169.1	 1.0	 100.0	 1	 507.4	 55.0	 0.0	 0.0	 0.0	 0.0	 0.0	 0.0	 0.0	 0.0	 0.0	 0.0	 507.4	0.5173	0.5177; % NG
	50351	 221.15	 34.25	 148.3	 -79.8	 1.0	 100.0	 1	 239.3	 203.0	 0.0	 0.0	 0.0	 0.0	 0.0	 0.0	 0.0	 0.0	 0.0	 0.0	 239.3	0.5173	0.5177; % NG
	50353	 182.5	 40.8	 176.6	 -95.0	 1.0	 100.0	 1	 285.0	 80.0	 0.0	 0.0	 0.0	 0.0	 0.0	 0.0	 0.0	 0.0	 0.0	 0.0	 285.0	0.5173	0.5177; % NG
	50353	 167.5	 16.2	 104.1	 -71.7	 1.0	 100.0	 1	 215.0	 120.0	 0.0	 0.0	 0.0	 0.0	 0.0	 0.0	 0.0	 0.0	 0.0	 0.0	 215.0	0.5173	0.5177; % NG
	50353	 167.5	 16.2	 104.1	 -71.7	 1.0	 100.0	 1	 215.0	 120.0	 0.0	 0.0	 0.0	 0.0	 0.0	 0.0	 0.0	 0.0	 0.0	 0.0	 215.0	0.5173	0.5177; % NG
	50354	 106.55	 16.1	 103.2	 -71.0	 1.0	 100.0	 1	 213.0	 0.1	 0.0	 0.0	 0.0	 0.0	 0.0	 0.0	 0.0	 0.0	 0.0	 0.0	 0.0	0.5173	0.5177; % NG
	50354	 111.8	 16.85	 108.2	 -74.5	 1.0	 100.0	 1	 223.5	 0.1	 0.0	 0.0	 0.0	 0.0	 0.0	 0.0	 0.0	 0.0	 0.0	 0.0	 0.0	0.5173	0.5177; % NG
	50354	 149.55	 22.55	 144.8	 -99.7	 1.0	 100.0	 1	 299.0	 0.1	 0.0	 0.0	 0.0	 0.0	 0.0	 0.0	 0.0	 0.0	 0.0	 0.0	 0.0	0.5173	0.5177; % NG
	50355	 150.0	 20.75	 133.2	 -91.7	 1.0	 100.0	 1	 275.0	 25.0	 0.0	 0.0	 0.0	 0.0	 0.0	 0.0	 0.0	 0.0	 0.0	 0.0	 275.0	0.5173	0.5177; % NG
	50355	 107.0	 30.05	 130.1	 -70.0	 1.0	 100.0	 1	 210.0	 4.0	 0.0	 0.0	 0.0	 0.0	 0.0	 0.0	 0.0	 0.0	 0.0	 0.0	 210.0	0.5173	0.5177; % NG
	50355	 109.4	 30.75	 133.1	 -71.6	 1.0	 100.0	 1	 214.8	 4.0	 0.0	 0.0	 0.0	 0.0	 0.0	 0.0	 0.0	 0.0	 0.0	 0.0	 214.8	0.8204	0.8230; % COW
	50355	 109.4	 30.75	 133.1	 -71.6	 1.0	 100.0	 1	 214.8	 4.0	 0.0	 0.0	 0.0	 0.0	 0.0	 0.0	 0.0	 0.0	 0.0	 0.0	 214.8	0.5173	0.5177; % NG
	50356	 104.5	 15.75	 101.2	 -69.7	 1.0	 100.0	 1	 209.0	 0.0	 0.0	 0.0	 0.0	 0.0	 0.0	 0.0	 0.0	 0.0	 0.0	 0.0	 0.0	0.5173	0.5177; % NG
	50357	 6.2	 1.75	 6.3	 -2.8	 1.0	 100.0	 1	 8.4	 4.0	 0.0	 0.0	 0.0	 0.0	 0.0	 0.0	 0.0	 0.0	 0.0	 0.0	 8.4	0.5173	0.5177; % NG
	50357	 6.2	 1.75	 6.3	 -2.8	 1.0	 100.0	 1	 8.4	 4.0	 0.0	 0.0	 0.0	 0.0	 0.0	 0.0	 0.0	 0.0	 0.0	 0.0	 8.4	0.8204	0.8230; % COW
	50357	 6.2	 1.75	 6.3	 -2.8	 1.0	 100.0	 1	 8.4	 4.0	 0.0	 0.0	 0.0	 0.0	 0.0	 0.0	 0.0	 0.0	 0.0	 0.0	 8.4	0.5173	0.5177; % NG
	50357	 6.2	 1.75	 6.3	 -2.8	 1.0	 100.0	 1	 8.4	 4.0	 0.0	 0.0	 0.0	 0.0	 0.0	 0.0	 0.0	 0.0	 0.0	 0.0	 8.4	0.5173	0.5177; % NG
	50357	 6.2	 1.75	 6.3	 -2.8	 1.0	 100.0	 1	 8.4	 4.0	 0.0	 0.0	 0.0	 0.0	 0.0	 0.0	 0.0	 0.0	 0.0	 0.0	 8.4	0.5173	0.5177; % NG
	50357	 6.2	 1.75	 6.3	 -2.8	 1.0	 100.0	 1	 8.4	 4.0	 0.0	 0.0	 0.0	 0.0	 0.0	 0.0	 0.0	 0.0	 0.0	 0.0	 8.4	0.5173	0.5177; % NG
	50357	 6.2	 1.75	 6.3	 -2.8	 1.0	 100.0	 1	 8.4	 4.0	 0.0	 0.0	 0.0	 0.0	 0.0	 0.0	 0.0	 0.0	 0.0	 0.0	 8.4	0.7001	0.7018; % PEL
	50357	 6.2	 1.75	 6.3	 -2.8	 1.0	 100.0	 1	 8.4	 4.0	 0.0	 0.0	 0.0	 0.0	 0.0	 0.0	 0.0	 0.0	 0.0	 0.0	 8.4	0.5173	0.5177; % NG
	50357	 6.2	 1.75	 6.3	 -2.8	 1.0	 100.0	 1	 8.4	 4.0	 0.0	 0.0	 0.0	 0.0	 0.0	 0.0	 0.0	 0.0	 0.0	 0.0	 8.4	0.5173	0.5177; % NG
	50357	 6.2	 1.75	 6.3	 -2.8	 1.0	 100.0	 1	 8.4	 4.0	 0.0	 0.0	 0.0	 0.0	 0.0	 0.0	 0.0	 0.0	 0.0	 0.0	 8.4	0.5173	0.5177; % NG
	50357	 6.2	 1.75	 6.3	 -2.8	 1.0	 100.0	 1	 8.4	 4.0	 0.0	 0.0	 0.0	 0.0	 0.0	 0.0	 0.0	 0.0	 0.0	 0.0	 8.4	0.5173	0.5177; % NG
	50357	 6.2	 1.75	 6.3	 -2.8	 1.0	 100.0	 1	 8.4	 4.0	 0.0	 0.0	 0.0	 0.0	 0.0	 0.0	 0.0	 0.0	 0.0	 0.0	 8.4	0.5173	0.5177; % NG
	50357	 6.2	 1.75	 6.3	 -2.8	 1.0	 100.0	 1	 8.4	 4.0	 0.0	 0.0	 0.0	 0.0	 0.0	 0.0	 0.0	 0.0	 0.0	 0.0	 8.4	0.5173	0.5177; % NG
	50357	 6.2	 1.75	 6.3	 -2.8	 1.0	 100.0	 1	 8.4	 4.0	 0.0	 0.0	 0.0	 0.0	 0.0	 0.0	 0.0	 0.0	 0.0	 0.0	 8.4	0.5173	0.5177; % NG
	50357	 6.2	 1.75	 6.3	 -2.8	 1.0	 100.0	 1	 8.4	 4.0	 0.0	 0.0	 0.0	 0.0	 0.0	 0.0	 0.0	 0.0	 0.0	 0.0	 8.4	0.5173	0.5177; % NG
	50357	 6.2	 1.75	 6.3	 -2.8	 1.0	 100.0	 1	 8.4	 4.0	 0.0	 0.0	 0.0	 0.0	 0.0	 0.0	 0.0	 0.0	 0.0	 0.0	 8.4	0.5173	0.5177; % NG
	50357	 6.2	 1.75	 6.3	 -2.8	 1.0	 100.0	 1	 8.4	 4.0	 0.0	 0.0	 0.0	 0.0	 0.0	 0.0	 0.0	 0.0	 0.0	 0.0	 8.4	0.5173	0.5177; % NG
	50357	 6.2	 1.75	 6.3	 -2.8	 1.0	 100.0	 1	 8.4	 4.0	 0.0	 0.0	 0.0	 0.0	 0.0	 0.0	 0.0	 0.0	 0.0	 0.0	 8.4	0.5173	0.5177; % NG
	50357	 6.2	 1.75	 6.3	 -2.8	 1.0	 100.0	 1	 8.4	 4.0	 0.0	 0.0	 0.0	 0.0	 0.0	 0.0	 0.0	 0.0	 0.0	 0.0	 8.4	0.5173	0.5177; % NG
	50357	 6.2	 1.75	 6.3	 -2.8	 1.0	 100.0	 1	 8.4	 4.0	 0.0	 0.0	 0.0	 0.0	 0.0	 0.0	 0.0	 0.0	 0.0	 0.0	 8.4	0.5173	0.5177; % NG
	50357	 6.2	 1.75	 6.3	 -2.8	 1.0	 100.0	 1	 8.4	 4.0	 0.0	 0.0	 0.0	 0.0	 0.0	 0.0	 0.0	 0.0	 0.0	 0.0	 8.4	0.5173	0.5177; % NG
	50357	 6.2	 1.75	 6.3	 -2.8	 1.0	 100.0	 1	 8.4	 4.0	 0.0	 0.0	 0.0	 0.0	 0.0	 0.0	 0.0	 0.0	 0.0	 0.0	 8.4	0.8204	0.8230; % COW
	50357	 6.2	 1.75	 6.3	 -2.8	 1.0	 100.0	 1	 8.4	 4.0	 0.0	 0.0	 0.0	 0.0	 0.0	 0.0	 0.0	 0.0	 0.0	 0.0	 8.4	0.5173	0.5177; % NG
	50357	 6.2	 1.75	 6.3	 -2.8	 1.0	 100.0	 1	 8.4	 4.0	 0.0	 0.0	 0.0	 0.0	 0.0	 0.0	 0.0	 0.0	 0.0	 0.0	 8.4	0.8204	0.8230; % COW
	50358	 100.8	 15.2	 97.6	 -67.2	 1.0	 100.0	 1	 201.6	 0.0	 0.0	 0.0	 0.0	 0.0	 0.0	 0.0	 0.0	 0.0	 0.0	 0.0	 0.0	0.5173	0.5177; % NG
	50360	 100.05	 15.1	 96.9	 -66.7	 1.0	 100.0	 1	 200.1	 0.0	 0.0	 0.0	 0.0	 0.0	 0.0	 0.0	 0.0	 0.0	 0.0	 0.0	 0.0	0.5173	0.5177; % NG
	50361	 212.8	 57.4	 206.7	 -91.9	 1.0	 100.0	 1	 275.6	 150.0	 0.0	 0.0	 0.0	 0.0	 0.0	 0.0	 0.0	 0.0	 0.0	 0.0	 275.6	0.8204	0.8230; % COW
	50361	 145.0	 41.65	 150.0	 -66.7	 1.0	 100.0	 1	 200.0	 90.0	 0.0	 0.0	 0.0	 0.0	 0.0	 0.0	 0.0	 0.0	 0.0	 0.0	 200.0	0.8204	0.8230; % COW
	50361	 145.0	 41.65	 150.0	 -66.7	 1.0	 100.0	 1	 200.0	 90.0	 0.0	 0.0	 0.0	 0.0	 0.0	 0.0	 0.0	 0.0	 0.0	 0.0	 200.0	0.5173	0.5177; % NG
	50362	 125.0	 15.1	 96.9	 -66.7	 1.0	 100.0	 1	 200.0	 50.0	 0.0	 0.0	 0.0	 0.0	 0.0	 0.0	 0.0	 0.0	 0.0	 0.0	 0.0	0.8204	0.8230; % COW
	50363	 125.0	 15.1	 96.9	 -66.7	 1.0	 100.0	 1	 200.0	 50.0	 0.0	 0.0	 0.0	 0.0	 0.0	 0.0	 0.0	 0.0	 0.0	 0.0	 0.0	0.5173	0.5177; % NG
	50364	 99.75	 15.05	 96.6	 -66.5	 1.0	 100.0	 1	 199.5	 0.0	 0.0	 0.0	 0.0	 0.0	 0.0	 0.0	 0.0	 0.0	 0.0	 0.0	 0.0	0.5173	0.5177; % NG
	50365	 104.95	 15.0	 96.3	 -66.3	 1.0	 100.0	 1	 198.9	 11.0	 0.0	 0.0	 0.0	 0.0	 0.0	 0.0	 0.0	 0.0	 0.0	 0.0	 198.9	0.5173	0.5177; % NG
	50365	 325.25	 43.8	 281.1	 -193.5	 1.0	 100.0	 1	 580.5	 70.0	 0.0	 0.0	 0.0	 0.0	 0.0	 0.0	 0.0	 0.0	 0.0	 0.0	 580.5	0.8204	0.8230; % COW
	50365	 207.5	 29.9	 191.8	 -132.0	 1.0	 100.0	 1	 396.0	 19.0	 0.0	 0.0	 0.0	 0.0	 0.0	 0.0	 0.0	 0.0	 0.0	 0.0	 396.0	0.5173	0.5177; % NG
	50366	 146.95	 28.5	 123.3	 -66.3	 1.0	 100.0	 1	 198.9	 95.0	 0.0	 0.0	 0.0	 0.0	 0.0	 0.0	 0.0	 0.0	 0.0	 0.0	 198.9	0.5173	0.5177; % NG
	50366	 146.95	 28.5	 123.3	 -66.3	 1.0	 100.0	 1	 198.9	 95.0	 0.0	 0.0	 0.0	 0.0	 0.0	 0.0	 0.0	 0.0	 0.0	 0.0	 198.9	0.5173	0.5177; % NG
	50366	 105.25	 28.0	 121.2	 -65.2	 1.0	 100.0	 1	 195.5	 15.0	 0.0	 0.0	 0.0	 0.0	 0.0	 0.0	 0.0	 0.0	 0.0	 0.0	 195.5	0.5173	0.5177; % NG
	50367	 117.25	 22.8	 98.8	 -53.2	 1.0	 100.0	 1	 159.5	 75.0	 0.0	 0.0	 0.0	 0.0	 0.0	 0.0	 0.0	 0.0	 0.0	 0.0	 159.5	0.5173	0.5177; % NG
	50367	 117.25	 22.8	 98.8	 -53.2	 1.0	 100.0	 1	 159.5	 75.0	 0.0	 0.0	 0.0	 0.0	 0.0	 0.0	 0.0	 0.0	 0.0	 0.0	 159.5	0.5173	0.5177; % NG
	50367	 117.25	 22.8	 98.8	 -53.2	 1.0	 100.0	 1	 159.5	 75.0	 0.0	 0.0	 0.0	 0.0	 0.0	 0.0	 0.0	 0.0	 0.0	 0.0	 159.5	0.5173	0.5177; % NG
	50367	 117.25	 22.8	 98.8	 -53.2	 1.0	 100.0	 1	 159.5	 75.0	 0.0	 0.0	 0.0	 0.0	 0.0	 0.0	 0.0	 0.0	 0.0	 0.0	 159.5	0.5173	0.5177; % NG
	50367	 136.95	 28.5	 123.3	 -66.3	 1.0	 100.0	 1	 198.9	 75.0	 0.0	 0.0	 0.0	 0.0	 0.0	 0.0	 0.0	 0.0	 0.0	 0.0	 198.9	0.5173	0.5177; % NG
	50367	 136.95	 28.5	 123.3	 -66.3	 1.0	 100.0	 1	 198.9	 75.0	 0.0	 0.0	 0.0	 0.0	 0.0	 0.0	 0.0	 0.0	 0.0	 0.0	 198.9	0.5173	0.5177; % NG
	50367	 136.95	 28.5	 123.3	 -66.3	 1.0	 100.0	 1	 198.9	 75.0	 0.0	 0.0	 0.0	 0.0	 0.0	 0.0	 0.0	 0.0	 0.0	 0.0	 198.9	0.5173	0.5177; % NG
	50367	 136.95	 28.5	 123.3	 -66.3	 1.0	 100.0	 1	 198.9	 75.0	 0.0	 0.0	 0.0	 0.0	 0.0	 0.0	 0.0	 0.0	 0.0	 0.0	 198.9	0.5173	0.5177; % NG
	50368	 33.2	 3.9	 24.9	 -17.1	 1.0	 100.0	 1	 51.4	 15.0	 0.0	 0.0	 0.0	 0.0	 0.0	 0.0	 0.0	 0.0	 0.0	 0.0	 51.4	0.5173	0.5177; % NG
	50368	 31.7	 3.9	 24.9	 -17.1	 1.0	 100.0	 1	 51.4	 12.0	 0.0	 0.0	 0.0	 0.0	 0.0	 0.0	 0.0	 0.0	 0.0	 0.0	 51.4	0.5173	0.5177; % NG
	50368	 31.7	 7.4	 31.9	 -17.1	 1.0	 100.0	 1	 51.4	 12.0	 0.0	 0.0	 0.0	 0.0	 0.0	 0.0	 0.0	 0.0	 0.0	 0.0	 51.4	0.5173	0.5177; % NG
	50368	 31.7	 7.4	 31.9	 -17.1	 1.0	 100.0	 1	 51.4	 12.0	 0.0	 0.0	 0.0	 0.0	 0.0	 0.0	 0.0	 0.0	 0.0	 0.0	 51.4	0.5173	0.5177; % NG
	50368	 31.7	 7.4	 31.9	 -17.1	 1.0	 100.0	 1	 51.4	 12.0	 0.0	 0.0	 0.0	 0.0	 0.0	 0.0	 0.0	 0.0	 0.0	 0.0	 51.4	0.5173	0.5177; % NG
	50368	 31.7	 7.4	 31.9	 -17.1	 1.0	 100.0	 1	 51.4	 12.0	 0.0	 0.0	 0.0	 0.0	 0.0	 0.0	 0.0	 0.0	 0.0	 0.0	 51.4	0.5173	0.5177; % NG
	50368	 145.0	 28.35	 122.7	 -66.0	 1.0	 100.0	 1	 198.0	 92.0	 0.0	 0.0	 0.0	 0.0	 0.0	 0.0	 0.0	 0.0	 0.0	 0.0	 198.0	0.5173	0.5177; % NG
	50368	 122.5	 27.25	 117.8	 -63.3	 1.0	 100.0	 1	 190.0	 55.0	 0.0	 0.0	 0.0	 0.0	 0.0	 0.0	 0.0	 0.0	 0.0	 0.0	 190.0	0.5173	0.5177; % NG
	50369	 98.5	 14.85	 95.4	 -65.7	 1.0	 100.0	 1	 197.0	 0.0	 0.0	 0.0	 0.0	 0.0	 0.0	 0.0	 0.0	 0.0	 0.0	 0.0	 0.0	0.5173	0.5177; % NG
	50370	 145.0	 25.8	 111.6	 -60.0	 1.0	 100.0	 1	 180.0	 110.0	 0.0	 0.0	 0.0	 0.0	 0.0	 0.0	 0.0	 0.0	 0.0	 0.0	 180.0	0.5173	0.5177; % NG
	50370	 158.45	 14.9	 95.4	 -65.6	 1.0	 100.0	 1	 196.9	 120.0	 0.0	 0.0	 0.0	 0.0	 0.0	 0.0	 0.0	 0.0	 0.0	 0.0	 196.9	0.5173	0.5177; % NG
	50371	 148.75	 14.75	 94.7	 -65.2	 1.0	 100.0	 1	 195.5	 102.0	 0.0	 0.0	 0.0	 0.0	 0.0	 0.0	 0.0	 0.0	 0.0	 0.0	 195.5	0.8204	0.8230; % COW
	50371	 148.75	 14.75	 94.7	 -65.2	 1.0	 100.0	 1	 195.5	 102.0	 0.0	 0.0	 0.0	 0.0	 0.0	 0.0	 0.0	 0.0	 0.0	 0.0	 195.5	0.5173	0.5177; % NG
	50371	 132.0	 29.2	 126.4	 -68.0	 1.0	 100.0	 1	 204.0	 60.0	 0.0	 0.0	 0.0	 0.0	 0.0	 0.0	 0.0	 0.0	 0.0	 0.0	 204.0	0.5173	0.5177; % NG
	50372	 114.95	 21.45	 92.9	 -50.0	 1.0	 100.0	 1	 149.9	 80.0	 0.0	 0.0	 0.0	 0.0	 0.0	 0.0	 0.0	 0.0	 0.0	 0.0	 149.9	0.5173	0.5177; % NG
	50372	 156.05	 27.55	 119.1	 -64.0	 1.0	 100.0	 1	 192.1	 120.0	 0.0	 0.0	 0.0	 0.0	 0.0	 0.0	 0.0	 0.0	 0.0	 0.0	 192.1	0.5173	0.5177; % NG
	50372	 156.05	 27.55	 119.1	 -64.0	 1.0	 100.0	 1	 192.1	 120.0	 0.0	 0.0	 0.0	 0.0	 0.0	 0.0	 0.0	 0.0	 0.0	 0.0	 192.1	0.5173	0.5177; % NG
	50372	 156.05	 27.55	 119.1	 -64.0	 1.0	 100.0	 1	 192.1	 120.0	 0.0	 0.0	 0.0	 0.0	 0.0	 0.0	 0.0	 0.0	 0.0	 0.0	 192.1	0.5173	0.5177; % NG
	50372	 156.05	 27.55	 119.1	 -64.0	 1.0	 100.0	 1	 192.1	 120.0	 0.0	 0.0	 0.0	 0.0	 0.0	 0.0	 0.0	 0.0	 0.0	 0.0	 192.1	0.5173	0.5177; % NG
	50373	 225.0	 26.5	 170.0	 -117.0	 1.0	 100.0	 1	 351.0	 99.0	 0.0	 0.0	 0.0	 0.0	 0.0	 0.0	 0.0	 0.0	 0.0	 0.0	 351.0	0.5173	0.5177; % NG
	50373	 124.8	 27.15	 117.5	 -63.2	 1.0	 100.0	 1	 189.6	 60.0	 0.0	 0.0	 0.0	 0.0	 0.0	 0.0	 0.0	 0.0	 0.0	 0.0	 189.6	0.5173	0.5177; % NG
	50373	 124.8	 27.15	 117.5	 -63.2	 1.0	 100.0	 1	 189.6	 60.0	 0.0	 0.0	 0.0	 0.0	 0.0	 0.0	 0.0	 0.0	 0.0	 0.0	 189.6	0.5173	0.5177; % NG
	50374	 225.0	 26.5	 170.0	 -117.0	 1.0	 100.0	 1	 351.0	 99.0	 0.0	 0.0	 0.0	 0.0	 0.0	 0.0	 0.0	 0.0	 0.0	 0.0	 351.0	0.5173	0.5177; % NG
	50374	 203.5	 26.6	 170.5	 -117.3	 1.0	 100.0	 1	 352.0	 55.0	 0.0	 0.0	 0.0	 0.0	 0.0	 0.0	 0.0	 0.0	 0.0	 0.0	 352.0	0.5173	0.5177; % NG
	50374	 124.8	 27.15	 117.5	 -63.2	 1.0	 100.0	 1	 189.6	 60.0	 0.0	 0.0	 0.0	 0.0	 0.0	 0.0	 0.0	 0.0	 0.0	 0.0	 189.6	0.5173	0.5177; % NG
	50374	 124.8	 27.15	 117.5	 -63.2	 1.0	 100.0	 1	 189.6	 60.0	 0.0	 0.0	 0.0	 0.0	 0.0	 0.0	 0.0	 0.0	 0.0	 0.0	 189.6	0.5173	0.5177; % NG
	50375	 211.6	 53.45	 231.3	 -124.4	 1.0	 100.0	 1	 373.2	 50.0	 0.0	 0.0	 0.0	 0.0	 0.0	 0.0	 0.0	 0.0	 0.0	 0.0	 373.2	0.5173	0.5177; % NG
	50375	 134.5	 27.05	 117.1	 -63.0	 1.0	 100.0	 1	 189.0	 80.0	 0.0	 0.0	 0.0	 0.0	 0.0	 0.0	 0.0	 0.0	 0.0	 0.0	 189.0	0.5173	0.5177; % NG
	50375	 134.5	 27.05	 117.1	 -63.0	 1.0	 100.0	 1	 189.0	 80.0	 0.0	 0.0	 0.0	 0.0	 0.0	 0.0	 0.0	 0.0	 0.0	 0.0	 189.0	0.5173	0.5177; % NG
	50375	 134.5	 27.05	 117.1	 -63.0	 1.0	 100.0	 1	 189.0	 80.0	 0.0	 0.0	 0.0	 0.0	 0.0	 0.0	 0.0	 0.0	 0.0	 0.0	 189.0	0.5173	0.5177; % NG
	50376	 201.15	 34.7	 150.2	 -80.8	 1.0	 100.0	 1	 242.3	 160.0	 0.0	 0.0	 0.0	 0.0	 0.0	 0.0	 0.0	 0.0	 0.0	 0.0	 242.3	0.5173	0.5177; % NG
	50376	 133.1	 26.95	 116.6	 -62.7	 1.0	 100.0	 1	 188.2	 78.0	 0.0	 0.0	 0.0	 0.0	 0.0	 0.0	 0.0	 0.0	 0.0	 0.0	 188.2	0.5173	0.5177; % NG
	50376	 133.1	 26.95	 116.6	 -62.7	 1.0	 100.0	 1	 188.2	 78.0	 0.0	 0.0	 0.0	 0.0	 0.0	 0.0	 0.0	 0.0	 0.0	 0.0	 188.2	0.5173	0.5177; % NG
	50377	 108.9	 26.9	 116.4	 -62.6	 1.0	 100.0	 1	 187.8	 30.0	 0.0	 0.0	 0.0	 0.0	 0.0	 0.0	 0.0	 0.0	 0.0	 0.0	 187.8	0.5173	0.5177; % NG
	50377	 108.9	 26.9	 116.4	 -62.6	 1.0	 100.0	 1	 187.8	 30.0	 0.0	 0.0	 0.0	 0.0	 0.0	 0.0	 0.0	 0.0	 0.0	 0.0	 187.8	0.5173	0.5177; % NG
	50377	 127.65	 32.25	 139.6	 -75.1	 1.0	 100.0	 1	 225.3	 30.0	 0.0	 0.0	 0.0	 0.0	 0.0	 0.0	 0.0	 0.0	 0.0	 0.0	 225.3	0.5173	0.5177; % NG
	50377	 127.65	 32.25	 139.6	 -75.1	 1.0	 100.0	 1	 225.3	 30.0	 0.0	 0.0	 0.0	 0.0	 0.0	 0.0	 0.0	 0.0	 0.0	 0.0	 225.3	0.8204	0.8230; % COW
	50378	 136.6	 13.8	 88.7	 -61.1	 1.0	 100.0	 1	 183.2	 90.0	 0.0	 0.0	 0.0	 0.0	 0.0	 0.0	 0.0	 0.0	 0.0	 0.0	 183.2	0.5173	0.5177; % NG
	50378	 136.6	 13.8	 88.7	 -61.1	 1.0	 100.0	 1	 183.2	 90.0	 0.0	 0.0	 0.0	 0.0	 0.0	 0.0	 0.0	 0.0	 0.0	 0.0	 183.2	0.5173	0.5177; % NG
	50378	 136.6	 13.8	 88.7	 -61.1	 1.0	 100.0	 1	 183.2	 90.0	 0.0	 0.0	 0.0	 0.0	 0.0	 0.0	 0.0	 0.0	 0.0	 0.0	 183.2	0.5173	0.5177; % NG
	50378	 225.05	 29.45	 188.9	 -130.0	 1.0	 100.0	 1	 390.1	 60.0	 0.0	 0.0	 0.0	 0.0	 0.0	 0.0	 0.0	 0.0	 0.0	 0.0	 390.1	0.5173	0.5177; % NG
	50379	 136.6	 13.8	 88.7	 -61.1	 1.0	 100.0	 1	 183.2	 90.0	 0.0	 0.0	 0.0	 0.0	 0.0	 0.0	 0.0	 0.0	 0.0	 0.0	 183.2	0.5173	0.5177; % NG
	50379	 136.6	 13.8	 88.7	 -61.1	 1.0	 100.0	 1	 183.2	 90.0	 0.0	 0.0	 0.0	 0.0	 0.0	 0.0	 0.0	 0.0	 0.0	 0.0	 183.2	0.7001	0.7018; % PEL
	50379	 136.6	 13.8	 88.7	 -61.1	 1.0	 100.0	 1	 183.2	 90.0	 0.0	 0.0	 0.0	 0.0	 0.0	 0.0	 0.0	 0.0	 0.0	 0.0	 183.2	0.5173	0.5177; % NG
	50379	 290.0	 29.45	 188.9	 -130.0	 1.0	 100.0	 1	 390.0	 190.0	 0.0	 0.0	 0.0	 0.0	 0.0	 0.0	 0.0	 0.0	 0.0	 0.0	 390.0	0.5173	0.5177; % NG
	50380	 105.0	 25.8	 111.6	 -60.0	 1.0	 100.0	 1	 180.0	 30.0	 0.0	 0.0	 0.0	 0.0	 0.0	 0.0	 0.0	 0.0	 0.0	 0.0	 180.0	0.5173	0.5177; % NG
	50380	 195.5	 26.5	 170.0	 -117.0	 1.0	 100.0	 1	 351.0	 40.0	 0.0	 0.0	 0.0	 0.0	 0.0	 0.0	 0.0	 0.0	 0.0	 0.0	 351.0	0.8204	0.8230; % COW
	50380	 195.5	 26.5	 170.0	 -117.0	 1.0	 100.0	 1	 351.0	 40.0	 0.0	 0.0	 0.0	 0.0	 0.0	 0.0	 0.0	 0.0	 0.0	 0.0	 351.0	0.5173	0.5177; % NG
	50381	 141.0	 25.8	 111.6	 -60.0	 1.0	 100.0	 1	 180.0	 102.0	 0.0	 0.0	 0.0	 0.0	 0.0	 0.0	 0.0	 0.0	 0.0	 0.0	 180.0	0.8204	0.8230; % COW
...
];

%% generator cost data
%	2	startup	shutdown	n	c(n-1)	...	c0
mpc.gencost = [
	2	 0.0	 0.0	 3	   0.000000	   6.391497	   0.000000; % NUC
	2	 0.0	 0.0	 3	   0.000000	   5.932603	   0.000000; % COW
	2	 0.0	 0.0	 3	   0.000000	   8.794484	   0.000000; % COW
	2	 0.0	 0.0	 3	   0.000000	  19.890723	   0.000000; % COW
	2	 0.0	 0.0	 3	   0.000000	   9.225452	   0.000000; % COW
	2	 0.0	 0.0	 3	   0.000000	  17.603644	   0.000000; % COW
	2	 0.0	 0.0	 3	   0.000000	  24.345794	   0.000000; % COW
	2	 0.0	 0.0	 3	   0.000000	  31.175899	   0.000000; % COW
	2	 0.0	 0.0	 3	   0.000000	  28.025584	   0.000000; % COW
	2	 0.0	 0.0	 3	   0.000000	  15.448532	   0.000000; % COW
	2	 0.0	 0.0	 3	   0.000000	  28.140568	   0.000000; % COW
	2	 0.0	 0.0	 3	   0.000000	  29.889146	   0.000000; % COW
	2	 0.0	 0.0	 3	   0.000000	  13.733906	   0.000000; % COW
	2	 0.0	 0.0	 3	   0.000000	  32.734468	   0.000000; % COW
	2	 0.0	 0.0	 3	   0.000000	  33.029544	   0.000000; % COW
	2	 0.0	 0.0	 3	   0.000000	  14.330736	   0.000000; % COW
	2	 0.0	 0.0	 3	   0.000000	  31.068929	   0.000000; % NG
	2	 0.0	 0.0	 3	   0.000000	  20.056980	   0.000000; % NG
	2	 0.0	 0.0	 3	   0.000000	  21.471691	   0.000000; % COW
	2	 0.0	 0.0	 3	   0.000000	  17.262753	   0.000000; % COW
	2	 0.0	 0.0	 3	   0.000000	   7.239955	   0.000000; % NUC
	2	 0.0	 0.0	 3	   0.000000	  21.534225	   0.000000; % COW
	2	 0.0	 0.0	 3	   0.000000	  32.140557	   0.000000; % COW
	2	 0.0	 0.0	 3	   0.000000	  28.325907	   0.000000; % COW
	2	 0.0	 0.0	 3	   0.000000	  45.249800	   0.000000; % NG
	2	 0.0	 0.0	 3	   0.000000	  29.383191	   0.000000; % COW
	2	 0.0	 0.0	 3	   0.000000	  27.584764	   0.000000; % COW
	2	 0.0	 0.0	 3	   0.000000	  34.110899	   0.000000; % COW
	2	 0.0	 0.0	 3	   0.000000	  23.985626	   0.000000; % COW
	2	 0.0	 0.0	 3	   0.000000	  25.026491	   0.000000; % COW
	2	 0.0	 0.0	 3	   0.000000	  18.543166	   0.000000; % COW
	2	 0.0	 0.0	 3	   0.000000	  39.993325	   0.000000; % COW
	2	 0.0	 0.0	 3	   0.000000	 131.440187	   0.000000; % PEL
	2	 0.0	 0.0	 3	   0.000000	  17.682531	   0.000000; % COW
	2	 0.0	 0.0	 3	   0.000000	  26.443118	   0.000000; % COW
	2	 0.0	 0.0	 3	   0.000000	  33.624352	   0.000000; % NG
	2	 0.0	 0.0	 3	   0.000000	  32.537324	   0.000000; % NG
	2	 0.0	 0.0	 3	   0.000000	  43.051292	   0.000000; % NG
	2	 0.0	 0.0	 3	   0.000000	  21.914252	   0.000000; % COW
	2	 0.0	 0.0	 3	   0.000000	  22.902363	   0.000000; % COW
	2	 0.0	 0.0	 3	   0.000000	  29.447883	   0.000000; % COW
	2	 0.0	 0.0	 3	   0.000000	  14.329123	   0.000000; % COW
	2	 0.0	 0.0	 3	   0.000000	  38.301026	   0.000000; % NG
	2	 0.0	 0.0	 3	   0.000000	  32.477064	   0.000000; % NG
	2	 0.0	 0.0	 3	   0.000000	  33.826441	   0.000000; % NG
	2	 0.0	 0.0	 3	   0.000000	  29.005561	   0.000000; % NG
	2	 0.0	 0.0	 3	   0.000000	  34.681098	   0.000000; % NG
	2	 0.0	 0.0	 3	   0.000000	 111.595090	   0.000000; % PEL
	2	 0.0	 0.0	 3	   0.000000	  35.951870	   0.000000; % NG
	2	 0.0	 0.0	 3	   0.000000	  30.810899	   0.000000; % COW
	2	 0.0	 0.0	 3	   0.000000	  21.134334	   0.000000; % COW
	2	 0.0	 0.0	 3	   0.000000	  44.985894	   0.000000; % NG
	2	 0.0	 0.0	 3	   0.000000	  45.041471	   0.000000; % NG
	2	 0.0	 0.0	 3	   0.000000	   9.002936	   0.000000; % COW
	2	 0.0	 0.0	 3	   0.000000	  26.629935	   0.000000; % NG
	2	 0.0	 0.0	 3	   0.000000	  21.923867	   0.000000; % NG
	2	 0.0	 0.0	 3	   0.000000	  27.832715	   0.000000; % COW
	2	 0.0	 0.0	 3	   0.000000	  38.898291	   0.000000; % NG
	2	 0.0	 0.0	 3	   0.000000	  39.433903	   0.000000; % NG
	2	 0.0	 0.0	 3	   0.000000	  41.903860	   0.000000; % NG
	2	 0.0	 0.0	 3	   0.000000	  35.318404	   0.000000; % NG
	2	 0.0	 0.0	 3	   0.000000	  20.252891	   0.000000; % COW
	2	 0.0	 0.0	 3	   0.000000	  48.018627	   0.000000; % NG
	2	 0.0	 0.0	 3	   0.000000	  33.402632	   0.000000; % NG
	2	 0.0	 0.0	 3	   0.000000	  38.190492	   0.000000; % NG
	2	 0.0	 0.0	 3	   0.000000	  30.279140	   0.000000; % NG
	2	 0.0	 0.0	 3	   0.000000	  53.753403	   0.000000; % NG
	2	 0.0	 0.0	 3	   0.000000	  38.658583	   0.000000; % NG
	2	 0.0	 0.0	 3	   0.000000	  23.797017	   0.000000; % NG
	2	 0.0	 0.0	 3	   0.000000	  31.059998	   0.000000; % NG
	2	 0.0	 0.0	 3	   0.000000	  26.674143	   0.000000; % COW
	2	 0.0	 0.0	 3	   0.000000	  45.914746	   0.000000; % NG
	2	 0.0	 0.0	 3	   0.000000	  39.354415	   0.000000; % NG
	2	 0.0	 0.0	 3	   0.000000	  26.940565	   0.000000; % NG
	2	 0.0	 0.0	 3	   0.000000	  40.646928	   0.000000; % NG
	2	 0.0	 0.0	 3	   0.000000	  34.523557	   0.000000; % NG
	2	 0.0	 0.0	 3	   0.000000	  49.296941	   0.000000; % NG
	2	 0.0	 0.0	 3	   0.000000	  22.613392	   0.000000; % NG
	2	 0.0	 0.0	 3	   0.000000	  15.330021	   0.000000; % NG
	2	 0.0	 0.0	 3	   0.000000	  29.949545	   0.000000; % NG
	2	 0.0	 0.0	 3	   0.000000	  32.306663	   0.000000; % COW
	2	 0.0	 0.0	 3	   0.000000	  30.894933	   0.000000; % NG
	2	 0.0	 0.0	 3	   0.000000	   3.695874	   0.000000; % NG
	2	 0.0	 0.0	 3	   0.000000	  25.839365	   0.000000; % NG
	2	 0.0	 0.0	 3	   0.000000	  47.054995	   0.000000; % NG
	2	 0.0	 0.0	 3	   0.000000	  33.276283	   0.000000; % NG
	2	 0.0	 0.0	 3	   0.000000	  27.205622	   0.000000; % COW
	2	 0.0	 0.0	 3	   0.000000	  48.238166	   0.000000; % NG
	2	 0.0	 0.0	 3	   0.000000	  41.798488	   0.000000; % NG
	2	 0.0	 0.0	 3	   0.000000	  60.217045	   0.000000; % NG
	2	 0.0	 0.0	 3	   0.000000	  35.934141	   0.000000; % COW
	2	 0.0	 0.0	 3	   0.000000	  32.064141	   0.000000; % COW
	2	 0.0	 0.0	 3	   0.000000	  37.488096	   0.000000; % NG
	2	 0.0	 0.0	 3	   0.000000	  54.927706	   0.000000; % NG
	2	 0.0	 0.0	 3	   0.000000	  39.142643	   0.000000; % NG
	2	 0.0	 0.0	 3	   0.000000	  13.981340	   0.000000; % NG
	2	 0.0	 0.0	 3	   0.000000	  27.098947	   0.000000; % NG
	2	 0.0	 0.0	 3	   0.000000	  40.895483	   0.000000; % NG
	2	 0.0	 0.0	 3	   0.000000	  37.534802	   0.000000; % NG
	2	 0.0	 0.0	 3	   0.000000	  40.620153	   0.000000; % NG
	2	 0.0	 0.0	 3	   0.000000	  43.995921	   0.000000; % NG
	2	 0.0	 0.0	 3	   0.000000	  40.105197	   0.000000; % NG
	2	 0.0	 0.0	 3	   0.000000	  29.736906	   0.000000; % COW
	2	 0.0	 0.0	 3	   0.000000	  34.075395	   0.000000; % NG
	2	 0.0	 0.0	 3	   0.000000	  35.330080	   0.000000; % NG
	2	 0.0	 0.0	 3	   0.000000	  25.017142	   0.000000; % NG
	2	 0.0	 0.0	 3	   0.000000	   0.711472	   0.000000; % COW
	2	 0.0	 0.0	 3	   0.000000	  39.922948	   0.000000; % NG
	2	 0.0	 0.0	 3	   0.000000	  37.124252	   0.000000; % NG
	2	 0.0	 0.0	 3	   0.000000	  28.829738	   0.000000; % NG
	2	 0.0	 0.0	 3	   0.000000	  21.271165	   0.000000; % NG
	2	 0.0	 0.0	 3	   0.000000	 129.927044	   0.000000; % PEL
	2	 0.0	 0.0	 3	   0.000000	  26.193129	   0.000000; % NG
	2	 0.0	 0.0	 3	   0.000000	  23.511580	   0.000000; % NG
	2	 0.0	 0.0	 3	   0.000000	  36.132733	   0.000000; % NG
	2	 0.0	 0.0	 3	   0.000000	  29.947167	   0.000000; % NG
	2	 0.0	 0.0	 3	   0.000000	  39.198192	   0.000000; % NG
	2	 0.0	 0.0	 3	   0.000000	  27.303909	   0.000000; % NG
	2	 0.0	 0.0	 3	   0.000000	   4.311269	   0.000000; % NG
	2	 0.0	 0.0	 3	   0.000000	  24.119837	   0.000000; % NG
	2	 0.0	 0.0	 3	   0.000000	  28.232677	   0.000000; % NG
	2	 0.0	 0.0	 3	   0.000000	  59.229359	   0.000000; % NG
	2	 0.0	 0.0	 3	   0.000000	  58.801293	   0.000000; % NG
	2	 0.0	 0.0	 3	   0.000000	   5.419890	   0.000000; % NG
	2	 0.0	 0.0	 3	   0.000000	  47.148045	   0.000000; % NG
	2	 0.0	 0.0	 3	   0.000000	  18.581731	   0.000000; % NG
	2	 0.0	 0.0	 3	   0.000000	  34.815901	   0.000000; % COW
	2	 0.0	 0.0	 3	   0.000000	  22.561612	   0.000000; % NG
	2	 0.0	 0.0	 3	   0.000000	  24.347984	   0.000000; % COW
	2	 0.0	 0.0	 3	   0.000000	  26.931754	   0.000000; % NG
	2	 0.0	 0.0	 3	   0.000000	  45.460831	   0.000000; % NG
	2	 0.0	 0.0	 3	   0.000000	   5.856434	   0.000000; % COW
	2	 0.0	 0.0	 3	   0.000000	  30.865318	   0.000000; % COW
	2	 0.0	 0.0	 3	   0.000000	  39.524302	   0.000000; % NG
	2	 0.0	 0.0	 3	   0.000000	  28.249393	   0.000000; % COW
	2	 0.0	 0.0	 3	   0.000000	  26.853265	   0.000000; % NG
	2	 0.0	 0.0	 3	   0.000000	  45.410285	   0.000000; % NG
	2	 0.0	 0.0	 3	   0.000000	  35.861427	   0.000000; % NG
	2	 0.0	 0.0	 3	   0.000000	  30.985618	   0.000000; % COW
	2	 0.0	 0.0	 3	   0.000000	  39.952070	   0.000000; % NG
	2	 0.0	 0.0	 3	   0.000000	  44.243585	   0.000000; % NG
	2	 0.0	 0.0	 3	   0.000000	  37.016262	   0.000000; % NG
	2	 0.0	 0.0	 3	   0.000000	  34.651201	   0.000000; % NG
	2	 0.0	 0.0	 3	   0.000000	  21.576455	   0.000000; % NG
	2	 0.0	 0.0	 3	   0.000000	  52.215549	   0.000000; % NG
	2	 0.0	 0.0	 3	   0.000000	  44.385411	   0.000000; % NG
	2	 0.0	 0.0	 3	   0.000000	  38.419123	   0.000000; % NG
	2	 0.0	 0.0	 3	   0.000000	  36.282278	   0.000000; % NG
	2	 0.0	 0.0	 3	   0.000000	  33.305202	   0.000000; % NG
	2	 0.0	 0.0	 3	   0.000000	  30.817858	   0.000000; % NG
	2	 0.0	 0.0	 3	   0.000000	  20.188363	   0.000000; % NG
	2	 0.0	 0.0	 3	   0.000000	  41.360803	   0.000000; % NG
	2	 0.0	 0.0	 3	   0.000000	  38.624396	   0.000000; % NG
	2	 0.0	 0.0	 3	   0.000000	  46.437900	   0.000000; % NG
	2	 0.0	 0.0	 3	   0.000000	  32.167961	   0.000000; % NG
	2	 0.0	 0.0	 3	   0.000000	  27.852733	   0.000000; % NG
	2	 0.0	 0.0	 3	   0.000000	  33.843180	   0.000000; % NG
	2	 0.0	 0.0	 3	   0.000000	  31.483315	   0.000000; % NG
	2	 0.0	 0.0	 3	   0.000000	  43.998165	   0.000000; % NG
	2	 0.0	 0.0	 3	   0.000000	  34.047273	   0.000000; % NG
	2	 0.0	 0.0	 3	   0.000000	  40.089444	   0.000000; % NG
	2	 0.0	 0.0	 3	   0.000000	  24.662850	   0.000000; % NG
	2	 0.0	 0.0	 3	   0.000000	  15.318127	   0.000000; % COW
	2	 0.0	 0.0	 3	   0.000000	  37.097038	   0.000000; % NG
	2	 0.0	 0.0	 3	   0.000000	  45.635578	   0.000000; % NG
	2	 0.0	 0.0	 3	   0.000000	  41.629407	   0.000000; % NG
	2	 0.0	 0.0	 3	   0.000000	  16.469233	   0.000000; % NG
	2	 0.0	 0.0	 3	   0.000000	  60.690162	   0.000000; % NG
	2	 0.0	 0.0	 3	   0.000000	  38.191796	   0.000000; % NG
	2	 0.0	 0.0	 3	   0.000000	  36.139926	   0.000000; % NG
	2	 0.0	 0.0	 3	   0.000000	  34.366261	   0.000000; % NG
	2	 0.0	 0.0	 3	   0.000000	  43.289730	   0.000000; % NG
	2	 0.0	 0.0	 3	   0.000000	  51.095008	   0.000000; % NG
	2	 0.0	 0.0	 3	   0.000000	  31.194203	   0.000000; % NG
	2	 0.0	 0.0	 3	   0.000000	  30.513483	   0.000000; % NG
	2	 0.0	 0.0	 3	   0.000000	  46.599436	   0.000000; % NG
	2	 0.0	 0.0	 3	   0.000000	  42.909073	   0.000000; % NG
	2	 0.0	 0.0	 3	   0.000000	  48.153640	   0.000000; % NG
	2	 0.0	 0.0	 3	   0.000000	  49.068795	   0.000000; % NG
	2	 0.0	 0.0	 3	   0.000000	  25.000802	   0.000000; % NG
	2	 0.0	 0.0	 3	   0.000000	  24.635007	   0.000000; % NG
	2	 0.0	 0.0	 3	   0.000000	  27.395057	   0.000000; % NG
	2	 0.0	 0.0	 3	   0.000000	  42.725326	   0.000000; % NG
	2	 0.0	 0.0	 3	   0.000000	  44.705192	   0.000000; % NG
	2	 0.0	 0.0	 3	   0.000000	  33.092585	   0.000000; % NG
	2	 0.0	 0.0	 3	   0.000000	  45.565911	   0.000000; % NG
	2	 0.0	 0.0	 3	   0.000000	  24.911255	   0.000000; % NG
	2	 0.0	 0.0	 3	   0.000000	  19.660146	   0.000000; % COW
	2	 0.0	 0.0	 3	   0.000000	  24.470919	   0.000000; % NG
	2	 0.0	 0.0	 3	   0.000000	  53.544024	   0.000000; % NG
	2	 0.0	 0.0	 3	   0.000000	  41.190740	   0.000000; % NG
	2	 0.0	 0.0	 3	   0.000000	  40.849095	   0.000000; % NG
	2	 0.0	 0.0	 3	   0.000000	  27.666797	   0.000000; % NG
	2	 0.0	 0.0	 3	   0.000000	 116.600624	   0.000000; % PEL
	2	 0.0	 0.0	 3	   0.000000	  17.680884	   0.000000; % NG
...